# generated using pymatgen
data_Li2SiO3
_symmetry_space_group_name_H-M   'P 1'
_cell_length_a   5.47108563
_cell_length_b   5.44769037
_cell_length_c   4.75128315
_cell_angle_alpha   90.11887712
_cell_angle_beta   90.05320180
_cell_angle_gamma   60.13194251
_symmetry_Int_Tables_number   1
_chemical_formula_structural   Li2SiO3
_chemical_formula_sum   'Li4 Si2 O6'
_cell_volume   122.80114394
_cell_formula_units_Z   2
loop_
 _symmetry_equiv_pos_site_id
 _symmetry_equiv_pos_as_xyz
  1  'x, y, z'
loop_
 _atom_site_type_symbol
 _atom_site_label
 _atom_site_symmetry_multiplicity
 _atom_site_fract_x
 _atom_site_fract_y
 _atom_site_fract_z
 _atom_site_occupancy
  Si  Si0  1  -0.00002651  0.22136490  0.11039347  1
  Si  Si1  1  -0.00001780  0.87878961  0.61008327  1
  O  O2  1  -0.00001114  0.93610589  0.96223241  1
  O  O3  1  -0.00004069  0.16389509  0.46238936  1
  O  O4  1  -0.71029065  0.21440334  0.02886313  1
  O  O5  1  -0.28977976  0.50416587  0.02885732  1
  O  O6  1  -0.71021160  0.59576438  0.52854922  1
  O  O7  1  -0.28976939  0.88555848  0.52856687  1
  Li  Li8  1  -0.34712627  0.88004931  0.11601587  1
  Li  Li9  1  -0.65288790  0.53291479  0.11601361  1
  Li  Li10  1  -0.65295971  0.22002518  0.61594390  1
  Li  Li11  1  -0.34709677  0.56710578  0.61594599  1
