# generated using pymatgen
data_Li2SiO3
_symmetry_space_group_name_H-M   'P 1'
_cell_length_a   5.49119959
_cell_length_b   5.45328846
_cell_length_c   4.75950576
_cell_angle_alpha   90.17836408
_cell_angle_beta   90.43155851
_cell_angle_gamma   60.23119754
_symmetry_Int_Tables_number   1
_chemical_formula_structural   Li2SiO3
_chemical_formula_sum   'Li4 Si2 O6'
_cell_volume   123.71228405
_cell_formula_units_Z   2
loop_
 _symmetry_equiv_pos_site_id
 _symmetry_equiv_pos_as_xyz
  1  'x, y, z'
loop_
 _atom_site_type_symbol
 _atom_site_label
 _atom_site_symmetry_multiplicity
 _atom_site_fract_x
 _atom_site_fract_y
 _atom_site_fract_z
 _atom_site_occupancy
  Si  Si0  1  -0.99973216  0.21977905  0.09589173  1
  Si  Si1  1  -0.00006881  0.88193173  0.61359903  1
  O  O2  1  -0.99938008  0.92667357  0.97356817  1
  O  O3  1  -0.00023999  0.17391666  0.48642263  1
  O  O4  1  -0.70795932  0.21084534  0.03187523  1
  O  O5  1  -0.29212742  0.50263818  0.03033787  1
  O  O6  1  -0.71282411  0.59966008  0.53013886  1
  O  O7  1  -0.28824704  0.88726181  0.52952696  1
  Li  Li8  1  -0.34300057  0.87786407  0.11836061  1
  Li  Li9  1  -0.65617378  0.53466485  0.11952654  1
  Li  Li10  1  -0.65456226  0.21953953  0.59751384  1
  Li  Li11  1  -0.34590264  0.56536775  0.59709295  1
