# generated using pymatgen
data_Li2SiO3
_symmetry_space_group_name_H-M   'P 1'
_cell_length_a   4.75974879
_cell_length_b   5.46958679
_cell_length_c   5.50160321
_cell_angle_alpha   119.79414296
_cell_angle_beta   89.49571825
_cell_angle_gamma   90.18110076
_symmetry_Int_Tables_number   1
_chemical_formula_structural   Li2SiO3
_chemical_formula_sum   'Li4 Si2 O6'
_cell_volume   124.29061820
_cell_formula_units_Z   2
loop_
 _symmetry_equiv_pos_site_id
 _symmetry_equiv_pos_as_xyz
  1  'x, y, z'
loop_
 _atom_site_type_symbol
 _atom_site_label
 _atom_site_symmetry_multiplicity
 _atom_site_fract_x
 _atom_site_fract_y
 _atom_site_fract_z
 _atom_site_occupancy
  Si  Si0  1  0.99691666  0.22379236  0.99981342  1
  Si  Si1  1  0.61779902  0.87773429  0.00011097  1
  O  O2  1  0.98677643  0.91567884  0.99928062  1
  O  O3  1  0.56776039  0.18169231  0.00061694  1
  O  O4  1  0.03644216  0.21028844  0.70498522  1
  O  O5  1  0.03516241  0.50443395  0.29449722  1
  O  O6  1  0.53047237  0.59985731  0.71300504  1
  O  O7  1  0.52974646  0.88714311  0.28827294  1
  Li  Li8  1  0.12058103  0.87760499  0.34195790  1
  Li  Li9  1  0.12187396  0.53532355  0.65701661  1
  Li  Li10  1  0.59066445  0.21908257  0.65212105  1
  Li  Li11  1  0.58965909  0.56751090  0.34854025  1
