# generated using pymatgen
data_Li2SiO3
_symmetry_space_group_name_H-M   'P 1'
_cell_length_a   5.49895688
_cell_length_b   5.46456478
_cell_length_c   4.75968072
_cell_angle_alpha   90.18027618
_cell_angle_beta   90.47572886
_cell_angle_gamma   60.21792552
_symmetry_Int_Tables_number   1
_chemical_formula_structural   Li2SiO3
_chemical_formula_sum   'Li4 Si2 O6'
_cell_volume   124.13053059
_cell_formula_units_Z   2
loop_
 _symmetry_equiv_pos_site_id
 _symmetry_equiv_pos_as_xyz
  1  'x, y, z'
loop_
 _atom_site_type_symbol
 _atom_site_label
 _atom_site_symmetry_multiplicity
 _atom_site_fract_x
 _atom_site_fract_y
 _atom_site_fract_z
 _atom_site_occupancy
  Si  Si0  1  -0.99970886  0.22183426  0.04811985  1
  Si  Si1  1  -0.00011402  0.88099053  0.61405482  1
  O  O2  1  -0.99932226  0.92010467  0.98113349  1
  O  O3  1  -0.00045794  0.17800461  0.52838153  1
  O  O4  1  -0.70489882  0.21042848  0.03352418  1
  O  O5  1  -0.29489947  0.50499014  0.03204972  1
  O  O6  1  -0.71299881  0.59924335  0.53056630  1
  O  O7  1  -0.28819464  0.88659804  0.52989511  1
  Li  Li8  1  -0.34213810  0.87775013  0.12011838  1
  Li  Li9  1  -0.65687995  0.53533205  0.12137718  1
  Li  Li10  1  -0.65382396  0.21909337  0.59262095  1
  Li  Li11  1  -0.34678136  0.56577296  0.59201292  1
