# generated using pymatgen
data_Li2SiO3
_symmetry_space_group_name_H-M   'P 1'
_cell_length_a   4.75950576
_cell_length_b   5.45328846
_cell_length_c   5.49119959
_cell_angle_alpha   119.76880246
_cell_angle_beta   89.56844149
_cell_angle_gamma   90.17836408
_symmetry_Int_Tables_number   1
_chemical_formula_structural   Li2SiO3
_chemical_formula_sum   'Li4 Si2 O6'
_cell_volume   123.71228405
_cell_formula_units_Z   2
loop_
 _symmetry_equiv_pos_site_id
 _symmetry_equiv_pos_as_xyz
  1  'x, y, z'
loop_
 _atom_site_type_symbol
 _atom_site_label
 _atom_site_symmetry_multiplicity
 _atom_site_fract_x
 _atom_site_fract_y
 _atom_site_fract_z
 _atom_site_occupancy
  Si  Si0  1  0.09589173  0.21977905  0.99973216  1
  Si  Si1  1  0.61359903  0.88193173  0.00006881  1
  O  O2  1  0.97356817  0.92667357  0.99938008  1
  O  O3  1  0.48642263  0.17391666  0.00023999  1
  O  O4  1  0.03187523  0.21084534  0.70795932  1
  O  O5  1  0.03033787  0.50263818  0.29212742  1
  O  O6  1  0.53013886  0.59966008  0.71282411  1
  O  O7  1  0.52952696  0.88726181  0.28824704  1
  Li  Li8  1  0.11836061  0.87786407  0.34300057  1
  Li  Li9  1  0.11952654  0.53466485  0.65617378  1
  Li  Li10  1  0.59751384  0.21953953  0.65456226  1
  Li  Li11  1  0.59709295  0.56536775  0.34590264  1
