# generated using pymatgen
data_Li2SiO3
_symmetry_space_group_name_H-M   'P 1'
_cell_length_a   5.47325018
_cell_length_b   5.44926450
_cell_length_c   4.72871342
_cell_angle_alpha   90.00000468
_cell_angle_beta   89.99998855
_cell_angle_gamma   60.14507492
_symmetry_Int_Tables_number   1
_chemical_formula_structural   Li2SiO3
_chemical_formula_sum   'Li4 Si2 O6'
_cell_volume   122.31785131
_cell_formula_units_Z   2
loop_
 _symmetry_equiv_pos_site_id
 _symmetry_equiv_pos_as_xyz
  1  'x, y, z'
loop_
 _atom_site_type_symbol
 _atom_site_label
 _atom_site_symmetry_multiplicity
 _atom_site_fract_x
 _atom_site_fract_y
 _atom_site_fract_z
 _atom_site_occupancy
  Si  Si0  1  -0.00000031  0.22162254  0.99424215  1
  Si  Si1  1  -0.99999756  0.87837644  0.49424211  1
  O  O2  1  -0.99999850  0.93574752  0.14071834  1
  O  O3  1  -0.00000182  0.16425274  0.64071836  1
  O  O4  1  -0.71022169  0.21455014  0.07585359  1
  O  O5  1  -0.28978107  0.50433026  0.07585324  1
  O  O6  1  -0.71022001  0.59567072  0.57585355  1
  O  O7  1  -0.28977940  0.88545003  0.57585322  1
  Li  Li8  1  -0.34706313  0.88027678  0.98999963  1
  Li  Li9  1  -0.65293534  0.53321284  0.99000035  1
  Li  Li10  1  -0.65293675  0.21972310  0.49000029  1
  Li  Li11  1  -0.34706442  0.56678690  0.48999957  1
