# generated using pymatgen
data_Li2SiO3
_symmetry_space_group_name_H-M   'P 1'
_cell_length_a   5.50319104
_cell_length_b   5.46572285
_cell_length_c   4.76633145
_cell_angle_alpha   90.22197536
_cell_angle_beta   90.56744213
_cell_angle_gamma   60.31228214
_symmetry_Int_Tables_number   1
_chemical_formula_structural   Li2SiO3
_chemical_formula_sum   'Li4 Si2 O6'
_cell_volume   124.54133026
_cell_formula_units_Z   2
loop_
 _symmetry_equiv_pos_site_id
 _symmetry_equiv_pos_as_xyz
  1  'x, y, z'
loop_
 _atom_site_type_symbol
 _atom_site_label
 _atom_site_symmetry_multiplicity
 _atom_site_fract_x
 _atom_site_fract_y
 _atom_site_fract_z
 _atom_site_occupancy
  Si  Si0  1  -0.99994031  0.22756473  0.99114884  1
  Si  Si1  1  -0.00087565  0.87457425  0.64937894  1
  O  O2  1  -0.00031609  0.91519337  0.01859153  1
  O  O3  1  -0.00092991  0.18887429  0.62729575  1
  O  O4  1  -0.71183371  0.21029215  0.08985830  1
  O  O5  1  -0.28656592  0.49710439  0.08888938  1
  O  O6  1  -0.70906565  0.59952818  0.57503147  1
  O  O7  1  -0.29188755  0.89083131  0.56622829  1
  Li  Li8  1  -0.34728248  0.87973773  0.06438877  1
  Li  Li9  1  -0.64923734  0.52925559  0.04946343  1
  Li  Li10  1  -0.65929319  0.22328249  0.50221158  1
  Li  Li11  1  -0.34299037  0.56390414  0.50136815  1
