# generated using pymatgen
data_Li2SiO3
_symmetry_space_group_name_H-M   'P 1'
_cell_length_a   5.50385986
_cell_length_b   5.46634731
_cell_length_c   4.76441606
_cell_angle_alpha   90.20747132
_cell_angle_beta   90.55100639
_cell_angle_gamma   60.30852458
_symmetry_Int_Tables_number   1
_chemical_formula_structural   Li2SiO3
_chemical_formula_sum   'Li4 Si2 O6'
_cell_volume   124.51630980
_cell_formula_units_Z   2
loop_
 _symmetry_equiv_pos_site_id
 _symmetry_equiv_pos_as_xyz
  1  'x, y, z'
loop_
 _atom_site_type_symbol
 _atom_site_label
 _atom_site_symmetry_multiplicity
 _atom_site_fract_x
 _atom_site_fract_y
 _atom_site_fract_z
 _atom_site_occupancy
  Si  Si0  1  -0.99918840  0.22544215  0.97099336  1
  Si  Si1  1  -0.00010803  0.87242394  0.62937470  1
  O  O2  1  -0.99911486  0.91118854  0.99337117  1
  O  O3  1  -0.99980020  0.18476298  0.60170463  1
  O  O4  1  -0.70809731  0.20922788  0.05344883  1
  O  O5  1  -0.29098848  0.50054269  0.04526877  1
  O  O6  1  -0.71345553  0.60286440  0.53169310  1
  O  O7  1  -0.28818535  0.88968602  0.53078902  1
  Li  Li8  1  -0.34085272  0.87675076  0.11847561  1
  Li  Li9  1  -0.65700772  0.53596044  0.11916322  1
  Li  Li10  1  -0.65239113  0.22028648  0.55782409  1
  Li  Li11  1  -0.35102844  0.57100633  0.57174794  1
