# generated using pymatgen
data_Li2SiO3
_symmetry_space_group_name_H-M   'P 1'
_cell_length_a   5.47617832
_cell_length_b   5.45452398
_cell_length_c   4.72913082
_cell_angle_alpha   90.00021598
_cell_angle_beta   89.99909680
_cell_angle_gamma   60.13056855
_symmetry_Int_Tables_number   1
_chemical_formula_structural   Li2SiO3
_chemical_formula_sum   'Li4 Si2 O6'
_cell_volume   122.49441631
_cell_formula_units_Z   2
loop_
 _symmetry_equiv_pos_site_id
 _symmetry_equiv_pos_as_xyz
  1  'x, y, z'
loop_
 _atom_site_type_symbol
 _atom_site_label
 _atom_site_symmetry_multiplicity
 _atom_site_fract_x
 _atom_site_fract_y
 _atom_site_fract_z
 _atom_site_occupancy
  Si  Si0  1  -0.99998307  0.22147214  0.10939897  1
  Si  Si1  1  -0.99998062  0.87852753  0.60939979  1
  O  O2  1  -0.99998209  0.93605765  0.96273142  1
  O  O3  1  -0.99998618  0.16394484  0.46273196  1
  O  O4  1  -0.71037473  0.21447087  0.02795863  1
  O  O5  1  -0.28959237  0.50407889  0.02795949  1
  O  O6  1  -0.71037605  0.59591726  0.52795715  1
  O  O7  1  -0.28958335  0.88551721  0.52795995  1
  Li  Li8  1  -0.34717904  0.87999290  0.11383188  1
  Li  Li9  1  -0.65279064  0.53280255  0.11382677  1
  Li  Li10  1  -0.65276639  0.21996708  0.61381849  1
  Li  Li11  1  -0.34719133  0.56717523  0.61381837  1
