# generated using pymatgen
data_Li2SiO3
_symmetry_space_group_name_H-M   'P 1'
_cell_length_a   5.47520737
_cell_length_b   5.45336318
_cell_length_c   4.73296668
_cell_angle_alpha   90.00704858
_cell_angle_beta   90.00075882
_cell_angle_gamma   60.13152142
_symmetry_Int_Tables_number   1
_chemical_formula_structural   Li2SiO3
_chemical_formula_sum   'Li4 Si2 O6'
_cell_volume   122.54712123
_cell_formula_units_Z   2
loop_
 _symmetry_equiv_pos_site_id
 _symmetry_equiv_pos_as_xyz
  1  'x, y, z'
loop_
 _atom_site_type_symbol
 _atom_site_label
 _atom_site_symmetry_multiplicity
 _atom_site_fract_x
 _atom_site_fract_y
 _atom_site_fract_z
 _atom_site_occupancy
  Si  Si0  1  -0.00002229  0.22146995  0.11042181  1
  Si  Si1  1  -0.00001959  0.87857473  0.61040196  1
  O  O2  1  -0.00002189  0.93609663  0.96351187  1
  O  O3  1  -0.00002620  0.16394276  0.46352130  1
  O  O4  1  -0.71038455  0.21448612  0.02896046  1
  O  O5  1  -0.28965401  0.50412149  0.02896518  1
  O  O6  1  -0.71038087  0.59590411  0.52894169  1
  O  O7  1  -0.28964683  0.88553287  0.52894836  1
  Li  Li8  1  -0.34719284  0.88002229  0.11505126  1
  Li  Li9  1  -0.65285062  0.53285394  0.11504249  1
  Li  Li10  1  -0.65282808  0.21998076  0.61504339  1
  Li  Li11  1  -0.34720303  0.56716330  0.61504662  1
