# generated using pymatgen
data_Al17BN18
_symmetry_space_group_name_H-M   'P 1'
_cell_length_a   9.31142315
_cell_length_b   9.32477917
_cell_length_c   10.13498605
_cell_angle_alpha   90.07474251
_cell_angle_beta   90.07556167
_cell_angle_gamma   60.14355268
_symmetry_Int_Tables_number   1
_chemical_formula_structural   Al17BN18
_chemical_formula_sum   'Al34 B2 N36'
_cell_volume   763.19288380
_cell_formula_units_Z   2
loop_
 _symmetry_equiv_pos_site_id
 _symmetry_equiv_pos_as_xyz
  1  'x, y, z'
loop_
 _atom_site_type_symbol
 _atom_site_label
 _atom_site_symmetry_multiplicity
 _atom_site_fract_x
 _atom_site_fract_y
 _atom_site_fract_z
 _atom_site_occupancy
  Al  Al0  1  0.10386829  0.10187718  0.39235012  1
  Al  Al1  1  0.22128284  0.20260093  0.13609029  1
  Al  Al2  1  0.77625378  0.10068379  0.87765994  1
  Al  Al3  1  0.44541334  0.09438116  0.38851675  1
  Al  Al4  1  0.56066568  0.20057025  0.13619877  1
  Al  Al5  1  0.11186113  0.09502657  0.87310400  1
  Al  Al6  1  0.21609507  0.20822065  0.63683252  1
  Al  Al7  1  0.77758148  0.10325111  0.39111047  1
  Al  Al8  1  0.88968506  0.20629530  0.13244777  1
  Al  Al9  1  0.44284221  0.08968159  0.88798632  1
  Al  Al10  1  0.56095527  0.20008123  0.63804070  1
  Al  Al11  1  0.10884598  0.42510831  0.38209102  1
  Al  Al12  1  0.22637903  0.54100360  0.07112983  1
  Al  Al13  1  0.77932932  0.42757550  0.87414413  1
  Al  Al14  1  0.89177200  0.53156179  0.63774901  1
  Al  Al15  1  0.44477098  0.43583332  0.31825858  1
  Al  Al16  1  0.54955749  0.54836780  0.05988361  1
  Al  Al17  1  0.10888599  0.42421780  0.88902948  1
  Al  Al18  1  0.22449135  0.54106228  0.56443855  1
  Al  Al19  1  0.78599474  0.42021082  0.39270415  1
  Al  Al20  1  0.88667344  0.53713666  0.13637790  1
  Al  Al21  1  0.43859997  0.43825516  0.81704570  1
  Al  Al22  1  0.55451812  0.53608440  0.57786639  1
  Al  Al23  1  0.10972902  0.76648403  0.31805273  1
  Al  Al24  1  0.23270862  0.86546327  0.05988741  1
  Al  Al25  1  0.76979825  0.75584932  0.88455147  1
  Al  Al26  1  0.89182103  0.87424767  0.58111597  1
  Al  Al27  1  0.44197494  0.75975107  0.32091085  1
  Al  Al28  1  0.55993968  0.87554077  0.13841426  1
  Al  Al29  1  0.11712426  0.75722793  0.81642790  1
  Al  Al30  1  0.21926191  0.87113208  0.57771100  1
  Al  Al31  1  0.77531180  0.75884091  0.38963692  1
  Al  Al32  1  0.89538677  0.87030890  0.06625084  1
  Al  Al33  1  0.55369263  0.87201302  0.64374824  1
  B  B34  1  0.88802253  0.20752506  0.64033616  1
  B  B35  1  0.43955904  0.75802754  0.80927513  1
  N  N36  1  0.22251881  0.20237196  0.32582696  1
  N  N37  1  0.10787174  0.09780212  0.06606515  1
  N  N38  1  0.88855712  0.20579517  0.80300036  1
  N  N39  1  0.78704278  0.11244148  0.58506728  1
  N  N40  1  0.55924639  0.20212832  0.32887810  1
  N  N41  1  0.44410921  0.09511913  0.07627699  1
  N  N42  1  0.22319264  0.20695657  0.82353936  1
  N  N43  1  0.08280080  0.11046418  0.58639367  1
  N  N44  1  0.88952607  0.20650407  0.32036564  1
  N  N45  1  0.77616919  0.10154775  0.07025375  1
  N  N46  1  0.55527581  0.20054991  0.82759629  1
  N  N47  1  0.44329607  0.09189739  0.57729263  1
  N  N48  1  0.22434624  0.54325946  0.37392761  1
  N  N49  1  0.10890288  0.42456880  0.08051090  1
  N  N50  1  0.89165150  0.53751879  0.82353733  1
  N  N51  1  0.79398098  0.39973111  0.58648988  1
  N  N52  1  0.55368766  0.54360836  0.38760521  1
  N  N53  1  0.44655289  0.43414604  0.12736137  1
  N  N54  1  0.22428881  0.54101051  0.88144804  1
  N  N55  1  0.10832244  0.42489827  0.57279357  1
  N  N56  1  0.88608929  0.53846174  0.32568649  1
  N  N57  1  0.78219112  0.42397023  0.06640378  1
  N  N58  1  0.53990371  0.56701528  0.86687562  1
  N  N59  1  0.43929873  0.43078378  0.62864547  1
  N  N60  1  0.22606964  0.86977721  0.38692189  1
  N  N61  1  0.11320165  0.76470824  0.12829858  1
  N  N62  1  0.89297133  0.86885763  0.86711589  1
  N  N63  1  0.77213858  0.75594935  0.58129958  1
  N  N64  1  0.55902567  0.87614380  0.32842282  1
  N  N65  1  0.44302824  0.75935756  0.13254778  1
  N  N66  1  0.25015070  0.85560855  0.86686476  1
  N  N67  1  0.11180938  0.75708398  0.63129423  1
  N  N68  1  0.89279076  0.87267649  0.38007697  1
  N  N69  1  0.77661318  0.75696569  0.07568908  1
  N  N70  1  0.54353549  0.86306293  0.83230525  1
  N  N71  1  0.43732793  0.75510262  0.64758044  1
