# generated using pymatgen
data_Al17BN18
_symmetry_space_group_name_H-M   'P 1'
_cell_length_a   9.30442895
_cell_length_b   9.30442705
_cell_length_c   10.13998348
_cell_angle_alpha   90.04904192
_cell_angle_beta   90.04919333
_cell_angle_gamma   60.17758846
_symmetry_Int_Tables_number   1
_chemical_formula_structural   Al17BN18
_chemical_formula_sum   'Al34 B2 N36'
_cell_volume   761.59032208
_cell_formula_units_Z   2
loop_
 _symmetry_equiv_pos_site_id
 _symmetry_equiv_pos_as_xyz
  1  'x, y, z'
loop_
 _atom_site_type_symbol
 _atom_site_label
 _atom_site_symmetry_multiplicity
 _atom_site_fract_x
 _atom_site_fract_y
 _atom_site_fract_z
 _atom_site_occupancy
  Al  Al0  1  0.10331662  0.10255819  0.39273191  1
  Al  Al1  1  0.22074812  0.20299271  0.13620313  1
  Al  Al2  1  0.77832089  0.09498820  0.88247221  1
  Al  Al3  1  0.44523002  0.09449488  0.38866457  1
  Al  Al4  1  0.55962903  0.20115696  0.13580342  1
  Al  Al5  1  0.11119708  0.09566034  0.87347240  1
  Al  Al6  1  0.21618535  0.20814610  0.63732733  1
  Al  Al7  1  0.78030742  0.09696835  0.39102415  1
  Al  Al8  1  0.88951760  0.20618460  0.13257517  1
  Al  Al9  1  0.44298555  0.08953840  0.88770827  1
  Al  Al10  1  0.56167845  0.19961314  0.63797676  1
  Al  Al11  1  0.10836593  0.42501966  0.38264525  1
  Al  Al12  1  0.22535547  0.54201997  0.07042267  1
  Al  Al13  1  0.77898880  0.42786876  0.87347685  1
  Al  Al14  1  0.89150656  0.53282630  0.63732008  1
  Al  Al15  1  0.44571540  0.43469946  0.31851709  1
  Al  Al16  1  0.54899147  0.54857996  0.05966231  1
  Al  Al17  1  0.10794329  0.42460514  0.88898559  1
  Al  Al18  1  0.22431465  0.54096518  0.56513179  1
  Al  Al19  1  0.78589622  0.41998293  0.39272029  1
  Al  Al20  1  0.88633596  0.53740856  0.13620164  1
  Al  Al21  1  0.43933154  0.43735309  0.81735311  1
  Al  Al22  1  0.55447861  0.53584050  0.57799153  1
  Al  Al23  1  0.11802457  0.76238493  0.31849644  1
  Al  Al24  1  0.23190565  0.86566121  0.05964941  1
  Al  Al25  1  0.77287336  0.75964483  0.88771098  1
  Al  Al26  1  0.88295875  0.87832308  0.63797605  1
  Al  Al27  1  0.44303548  0.75971402  0.32109412  1
  Al  Al28  1  0.55902767  0.87570073  0.13779907  1
  Al  Al29  1  0.12068700  0.75599292  0.81735779  1
  Al  Al30  1  0.21918664  0.87111852  0.57799270  1
  Al  Al31  1  0.77783539  0.76188965  0.38864987  1
  Al  Al32  1  0.88447297  0.87630679  0.13578977  1
  Al  Al33  1  0.55502101  0.87165974  0.64316217  1
  B  B34  1  0.88954168  0.20619303  0.64017504  1
  B  B35  1  0.44126827  0.75793275  0.80945038  1
  N  N36  1  0.22238168  0.20246850  0.32587721  1
  N  N37  1  0.10734065  0.09835888  0.06611070  1
  N  N38  1  0.88780311  0.20447692  0.80348491  1
  N  N39  1  0.78942779  0.10607395  0.58198996  1
  N  N40  1  0.55974546  0.20159828  0.32904249  1
  N  N41  1  0.44331194  0.09544710  0.07596915  1
  N  N42  1  0.22305689  0.20715704  0.82364817  1
  N  N43  1  0.08267127  0.11064005  0.58676466  1
  N  N44  1  0.88922448  0.20588821  0.32075148  1
  N  N45  1  0.77878958  0.09547531  0.07149040  1
  N  N46  1  0.55665156  0.20014274  0.82864774  1
  N  N47  1  0.44300124  0.09202972  0.57753892  1
  N  N48  1  0.22529236  0.54196533  0.37523347  1
  N  N49  1  0.10826483  0.42492189  0.08025322  1
  N  N50  1  0.89049376  0.53971650  0.82364417  1
  N  N51  1  0.79399750  0.39931685  0.58675334  1
  N  N52  1  0.55355325  0.54353606  0.38793697  1
  N  N53  1  0.44617953  0.43406452  0.12733049  1
  N  N54  1  0.22414551  0.54079945  0.88127371  1
  N  N55  1  0.10805200  0.42468680  0.57307820  1
  N  N56  1  0.88581629  0.53903826  0.32587205  1
  N  N57  1  0.78168821  0.42401134  0.06611508  1
  N  N58  1  0.53967670  0.56713769  0.86699113  1
  N  N59  1  0.43975585  0.43006908  0.62909366  1
  N  N60  1  0.22685924  0.87021636  0.38793534  1
  N  N61  1  0.11738193  0.76285221  0.12730836  1
  N  N62  1  0.88347381  0.87331648  0.82865102  1
  N  N63  1  0.77538515  0.75964184  0.57752582  1
  N  N64  1  0.55941992  0.87608821  0.32842894  1
  N  N65  1  0.44286144  0.75954026  0.13256993  1
  N  N66  1  0.25046820  0.85634789  0.86698115  1
  N  N67  1  0.11341550  0.75639845  0.62909988  1
  N  N68  1  0.88492335  0.87641749  0.32902492  1
  N  N69  1  0.77877298  0.75997382  0.07597014  1
  N  N70  1  0.54542829  0.86209008  0.83240122  1
  N  N71  1  0.43841050  0.75505887  0.64765963  1
