# generated using pymatgen
data_Al17BN18
_symmetry_space_group_name_H-M   'P 1'
_cell_length_a   9.36019570
_cell_length_b   9.36019815
_cell_length_c   10.07050737
_cell_angle_alpha   90.12371166
_cell_angle_beta   90.12314393
_cell_angle_gamma   60.12771931
_symmetry_Int_Tables_number   1
_chemical_formula_structural   Al17BN18
_chemical_formula_sum   'Al34 B2 N36'
_cell_volume   765.08220729
_cell_formula_units_Z   2
loop_
 _symmetry_equiv_pos_site_id
 _symmetry_equiv_pos_as_xyz
  1  'x, y, z'
loop_
 _atom_site_type_symbol
 _atom_site_label
 _atom_site_symmetry_multiplicity
 _atom_site_fract_x
 _atom_site_fract_y
 _atom_site_fract_z
 _atom_site_occupancy
  Al  Al0  1  0.10415645  0.10087370  0.39382451  1
  Al  Al1  1  0.22238245  0.20164973  0.13659339  1
  Al  Al2  1  0.77927626  0.09595929  0.83346990  1
  Al  Al3  1  0.43832192  0.09655961  0.39147434  1
  Al  Al4  1  0.55750355  0.20883253  0.06401430  1
  Al  Al5  1  0.11192010  0.09501212  0.87756801  1
  Al  Al6  1  0.21335286  0.21069375  0.63914341  1
  Al  Al7  1  0.78044757  0.09713392  0.36820373  1
  Al  Al8  1  0.88911658  0.20580137  0.13371261  1
  Al  Al9  1  0.43692505  0.09277728  0.87533941  1
  Al  Al10  1  0.55762446  0.21318696  0.57980684  1
  Al  Al11  1  0.10876458  0.42544934  0.38205022  1
  Al  Al12  1  0.22439163  0.54107425  0.07430529  1
  Al  Al13  1  0.77833094  0.42860310  0.87756733  1
  Al  Al14  1  0.89400864  0.53003925  0.63914293  1
  Al  Al15  1  0.44789449  0.42878989  0.31902301  1
  Al  Al16  1  0.54888908  0.54563459  0.06368521  1
  Al  Al17  1  0.10828195  0.42496579  0.89154482  1
  Al  Al18  1  0.22490006  0.54158249  0.56529495  1
  Al  Al19  1  0.78418900  0.42084263  0.39382442  1
  Al  Al20  1  0.88496668  0.53906709  0.13659358  1
  Al  Al21  1  0.43926633  0.43692144  0.81792931  1
  Al  Al22  1  0.55488232  0.53857756  0.58083808  1
  Al  Al23  1  0.11210472  0.76457817  0.31902276  1
  Al  Al24  1  0.22895120  0.86557069  0.06368537  1
  Al  Al25  1  0.77609364  0.75360946  0.87533883  1
  Al  Al26  1  0.89650362  0.87430778  0.57980559  1
  Al  Al27  1  0.44412159  0.76080729  0.32299818  1
  Al  Al28  1  0.54998867  0.86667067  0.06703343  1
  Al  Al29  1  0.12023807  0.75594872  0.81792890  1
  Al  Al30  1  0.22189323  0.87156559  0.58083727  1
  Al  Al31  1  0.77987284  0.75500853  0.39147379  1
  Al  Al32  1  0.89214963  0.87418638  0.06401425  1
  Al  Al33  1  0.55164944  0.86833593  0.58689883  1
  B  B34  1  0.89191168  0.20859522  0.64380219  1
  B  B35  1  0.44341271  0.76009655  0.81455743  1
  N  N36  1  0.22143140  0.20252599  0.32712831  1
  N  N37  1  0.10770793  0.09720313  0.06996315  1
  N  N38  1  0.89339474  0.21007749  0.80579042  1
  N  N39  1  0.79079761  0.10748148  0.60859527  1
  N  N40  1  0.55432254  0.21158119  0.38330091  1
  N  N41  1  0.43913037  0.09575440  0.07393425  1
  N  N42  1  0.21767371  0.20992805  0.82505864  1
  N  N43  1  0.08348878  0.11075864  0.58770928  1
  N  N44  1  0.89111613  0.20780145  0.32372315  1
  N  N45  1  0.77906339  0.09574743  0.09328860  1
  N  N46  1  0.55332556  0.21174721  0.86688817  1
  N  N47  1  0.43749313  0.09880427  0.58998058  1
  N  N48  1  0.22525526  0.54193999  0.37316598  1
  N  N49  1  0.10794977  0.42463244  0.08345388  1
  N  N50  1  0.89324556  0.53435774  0.82505811  1
  N  N51  1  0.79407461  0.40017344  0.58770951  1
  N  N52  1  0.55256320  0.54252475  0.38749161  1
  N  N53  1  0.44736040  0.42814593  0.12894314  1
  N  N54  1  0.22403418  0.54071788  0.88269723  1
  N  N55  1  0.10906051  0.42574448  0.57357360  1
  N  N56  1  0.88584176  0.53811682  0.32712845  1
  N  N57  1  0.78052107  0.42439166  0.06996274  1
  N  N58  1  0.53931234  0.56609670  0.86916334  1
  N  N59  1  0.44007367  0.43241703  0.63162071  1
  N  N60  1  0.22583849  0.86924790  0.38749113  1
  N  N61  1  0.11146162  0.76404350  0.12894317  1
  N  N62  1  0.89506346  0.87000963  0.86688818  1
  N  N63  1  0.78211811  0.75417899  0.58998016  1
  N  N64  1  0.55183708  0.86852364  0.38468665  1
  N  N65  1  0.44318324  0.75986735  0.13488654  1
  N  N66  1  0.24941362  0.85599405  0.86916360  1
  N  N67  1  0.11573269  0.75675725  0.63162025  1
  N  N68  1  0.89489470  0.87100893  0.38330015  1
  N  N69  1  0.77907154  0.75581365  0.07393403  1
  N  N70  1  0.53979580  0.85647934  0.86556499  1
  N  N71  1  0.44276845  0.75945344  0.65210784  1
