# generated using pymatgen
data_Al17BN18
_symmetry_space_group_name_H-M   'P 1'
_cell_length_a   9.32772910
_cell_length_b   9.33088746
_cell_length_c   10.07338370
_cell_angle_alpha   90.13380556
_cell_angle_beta   90.17486309
_cell_angle_gamma   60.30191708
_symmetry_Int_Tables_number   1
_chemical_formula_structural   Al17BN18
_chemical_formula_sum   'Al34 B2 N36'
_cell_volume   761.58065656
_cell_formula_units_Z   2
loop_
 _symmetry_equiv_pos_site_id
 _symmetry_equiv_pos_as_xyz
  1  'x, y, z'
loop_
 _atom_site_type_symbol
 _atom_site_label
 _atom_site_symmetry_multiplicity
 _atom_site_fract_x
 _atom_site_fract_y
 _atom_site_fract_z
 _atom_site_occupancy
  Al  Al0  1  0.10162502  0.10084883  0.38524599  1
  Al  Al1  1  0.21963987  0.19999012  0.11355361  1
  Al  Al2  1  0.77828572  0.09533676  0.80184796  1
  Al  Al3  1  0.44806805  0.09031930  0.30962525  1
  Al  Al4  1  0.55602813  0.20525208  0.05592214  1
  Al  Al5  1  0.11377393  0.09482326  0.86487948  1
  Al  Al6  1  0.21758322  0.20364536  0.61997553  1
  Al  Al7  1  0.77466971  0.09144905  0.30709418  1
  Al  Al8  1  0.89066239  0.20674710  0.12371526  1
  Al  Al9  1  0.45138216  0.08713520  0.80740672  1
  Al  Al10  1  0.56072860  0.20739510  0.55654211  1
  Al  Al11  1  0.11338143  0.42807145  0.31225611  1
  Al  Al12  1  0.22149146  0.53861014  0.05854186  1
  Al  Al13  1  0.77898432  0.43084065  0.86740044  1
  Al  Al14  1  0.88631663  0.53372759  0.62368699  1
  Al  Al15  1  0.44688496  0.42919513  0.30819402  1
  Al  Al16  1  0.54609649  0.54657879  0.05213025  1
  Al  Al17  1  0.11545329  0.43170906  0.81042529  1
  Al  Al18  1  0.22251859  0.53923756  0.55447617  1
  Al  Al19  1  0.78472571  0.41807578  0.38467400  1
  Al  Al20  1  0.88165185  0.53603003  0.12281613  1
  Al  Al21  1  0.44311790  0.43361289  0.80686413  1
  Al  Al22  1  0.55339610  0.53846731  0.57026499  1
  Al  Al23  1  0.11247480  0.76353362  0.30821645  1
  Al  Al24  1  0.22977627  0.86272764  0.05144434  1
  Al  Al25  1  0.77023146  0.76826422  0.80743251  1
  Al  Al26  1  0.89066181  0.87732635  0.55677972  1
  Al  Al27  1  0.44344112  0.76058610  0.31180151  1
  Al  Al28  1  0.55273645  0.86915217  0.05319611  1
  Al  Al29  1  0.11681425  0.75933173  0.80674630  1
  Al  Al30  1  0.22210328  0.86941790  0.57090570  1
  Al  Al31  1  0.77259250  0.76664649  0.31004384  1
  Al  Al32  1  0.88829715  0.87239152  0.05593021  1
  Al  Al33  1  0.55476119  0.87159398  0.56154311  1
  B  B34  1  0.89146758  0.20839814  0.63577485  1
  B  B35  1  0.44401718  0.76007086  0.80349053  1
  N  N36  1  0.22029779  0.20011988  0.32773302  1
  N  N37  1  0.10549064  0.09473386  0.05625214  1
  N  N38  1  0.89428596  0.21228921  0.79754218  1
  N  N39  1  0.78799261  0.10466202  0.61154535  1
  N  N40  1  0.55510495  0.20669061  0.36723339  1
  N  N41  1  0.44948638  0.08944264  0.11432735  1
  N  N42  1  0.22464096  0.20452827  0.82216263  1
  N  N43  1  0.08239763  0.10874463  0.57889927  1
  N  N44  1  0.89104720  0.20726323  0.31261684  1
  N  N45  1  0.77429267  0.09072887  0.11531480  1
  N  N46  1  0.55845760  0.20718093  0.86615636  1
  N  N47  1  0.45180891  0.09210179  0.61549774  1
  N  N48  1  0.22352367  0.54030710  0.36576581  1
  N  N49  1  0.11178370  0.42877525  0.11378388  1
  N  N50  1  0.88750693  0.54097411  0.81960106  1
  N  N51  1  0.79296127  0.39882277  0.57745278  1
  N  N52  1  0.55155984  0.54256340  0.37705569  1
  N  N53  1  0.44548133  0.42817554  0.11702572  1
  N  N54  1  0.22404443  0.54057092  0.87033801  1
  N  N55  1  0.11389203  0.43092786  0.61154206  1
  N  N56  1  0.88283698  0.53659534  0.32223489  1
  N  N57  1  0.77842103  0.42262532  0.05790694  1
  N  N58  1  0.53904533  0.56728773  0.85744124  1
  N  N59  1  0.44242508  0.42709355  0.61940472  1
  N  N60  1  0.22581022  0.86791796  0.37759760  1
  N  N61  1  0.11141174  0.76230056  0.11698383  1
  N  N62  1  0.89037032  0.87517571  0.86604219  1
  N  N63  1  0.77541312  0.76821477  0.61497163  1
  N  N64  1  0.55401841  0.87141504  0.37215486  1
  N  N65  1  0.44372831  0.76072447  0.12292792  1
  N  N66  1  0.25075345  0.85514418  0.85671930  1
  N  N67  1  0.11039837  0.75870236  0.61948158  1
  N  N68  1  0.89010113  0.87192374  0.36753814  1
  N  N69  1  0.77233323  0.76662659  0.11480890  1
  N  N70  1  0.54361845  0.86027456  0.86192093  1
  N  N71  1  0.44574297  0.76170045  0.63999368  1
