# generated using pymatgen
data_Al17BN18
_symmetry_space_group_name_H-M   'P 1'
_cell_length_a   9.32878207
_cell_length_b   9.33306368
_cell_length_c   10.06597831
_cell_angle_alpha   90.12823543
_cell_angle_beta   90.17710258
_cell_angle_gamma   60.29339061
_symmetry_Int_Tables_number   1
_chemical_formula_structural   Al17BN18
_chemical_formula_sum   'Al34 B2 N36'
_cell_volume   761.21958090
_cell_formula_units_Z   2
loop_
 _symmetry_equiv_pos_site_id
 _symmetry_equiv_pos_as_xyz
  1  'x, y, z'
loop_
 _atom_site_type_symbol
 _atom_site_label
 _atom_site_symmetry_multiplicity
 _atom_site_fract_x
 _atom_site_fract_y
 _atom_site_fract_z
 _atom_site_occupancy
  Al  Al0  1  0.10156317  0.10067457  0.38536846  1
  Al  Al1  1  0.22042881  0.20115079  0.10333727  1
  Al  Al2  1  0.77811065  0.09534481  0.80192265  1
  Al  Al3  1  0.44652098  0.09109574  0.30974390  1
  Al  Al4  1  0.55627751  0.20531997  0.05602206  1
  Al  Al5  1  0.11350861  0.09427259  0.86364486  1
  Al  Al6  1  0.21802725  0.20406695  0.61490599  1
  Al  Al7  1  0.77457483  0.09144625  0.30722853  1
  Al  Al8  1  0.89076759  0.20671380  0.12389467  1
  Al  Al9  1  0.45102856  0.08733667  0.80735280  1
  Al  Al10  1  0.56075235  0.20738105  0.55648082  1
  Al  Al11  1  0.11402547  0.42680300  0.31227204  1
  Al  Al12  1  0.22157126  0.53885159  0.05865435  1
  Al  Al13  1  0.77896694  0.43090627  0.86743628  1
  Al  Al14  1  0.88623391  0.53375105  0.62384991  1
  Al  Al15  1  0.44683988  0.42914712  0.30835523  1
  Al  Al16  1  0.54616924  0.54654293  0.05221241  1
  Al  Al17  1  0.11565312  0.43148592  0.81007119  1
  Al  Al18  1  0.22252105  0.53928803  0.55439907  1
  Al  Al19  1  0.78483661  0.41809735  0.38461650  1
  Al  Al20  1  0.88155384  0.53604759  0.12310278  1
  Al  Al21  1  0.44309484  0.43358598  0.80695893  1
  Al  Al22  1  0.55347008  0.53840606  0.57027267  1
  Al  Al23  1  0.11244784  0.76342241  0.30834682  1
  Al  Al24  1  0.22978553  0.86262225  0.05142013  1
  Al  Al25  1  0.77020445  0.76824953  0.80754674  1
  Al  Al26  1  0.89063130  0.87731349  0.55681163  1
  Al  Al27  1  0.44338634  0.76068528  0.31189876  1
  Al  Al28  1  0.55283532  0.86894027  0.05327156  1
  Al  Al29  1  0.11677857  0.75915522  0.80677770  1
  Al  Al30  1  0.22208842  0.86928093  0.57109934  1
  Al  Al31  1  0.77256473  0.76667961  0.31019605  1
  Al  Al32  1  0.88829007  0.87242632  0.05596257  1
  Al  Al33  1  0.55473416  0.87160795  0.56150149  1
  B  B34  1  0.89143213  0.20827980  0.63598369  1
  B  B35  1  0.44408510  0.75998111  0.80343285  1
  N  N36  1  0.22098499  0.20105974  0.33556053  1
  N  N37  1  0.10512230  0.09433317  0.05597188  1
  N  N38  1  0.89384536  0.21246965  0.79764037  1
  N  N39  1  0.78789355  0.10460778  0.61154229  1
  N  N40  1  0.55507439  0.20657694  0.36709728  1
  N  N41  1  0.44903598  0.08971138  0.11441864  1
  N  N42  1  0.22503299  0.20500275  0.82634209  1
  N  N43  1  0.08218904  0.10834828  0.57988664  1
  N  N44  1  0.89105151  0.20719405  0.31275588  1
  N  N45  1  0.77435990  0.09069617  0.11533998  1
  N  N46  1  0.55843596  0.20716468  0.86623655  1
  N  N47  1  0.45180787  0.09210971  0.61602002  1
  N  N48  1  0.22336454  0.54028407  0.36562968  1
  N  N49  1  0.11206079  0.42848218  0.11408420  1
  N  N50  1  0.88753565  0.54098481  0.81978830  1
  N  N51  1  0.79307751  0.39878289  0.57749802  1
  N  N52  1  0.55160880  0.54255126  0.37700303  1
  N  N53  1  0.44551152  0.42817068  0.11703127  1
  N  N54  1  0.22399233  0.54056339  0.87043665  1
  N  N55  1  0.11399051  0.43112063  0.61241537  1
  N  N56  1  0.88303534  0.53655486  0.32216141  1
  N  N57  1  0.77852009  0.42258577  0.05805328  1
  N  N58  1  0.53906735  0.56725750  0.85744121  1
  N  N59  1  0.44243758  0.42707094  0.61937320  1
  N  N60  1  0.22572747  0.86785201  0.37765928  1
  N  N61  1  0.11137916  0.76230015  0.11698706  1
  N  N62  1  0.89036094  0.87517732  0.86602082  1
  N  N63  1  0.77539333  0.76819011  0.61494720  1
  N  N64  1  0.55391663  0.87159915  0.37200930  1
  N  N65  1  0.44371894  0.76069203  0.12290121  1
  N  N66  1  0.25080749  0.85493389  0.85654566  1
  N  N67  1  0.11036908  0.75858329  0.61946474  1
  N  N68  1  0.89008772  0.87192102  0.36753044  1
  N  N69  1  0.77237013  0.76663814  0.11477445  1
  N  N70  1  0.54357139  0.86030239  0.86194909  1
  N  N71  1  0.44582657  0.76163148  0.63994848  1
