# generated using pymatgen
data_Al17BN18
_symmetry_space_group_name_H-M   'P 1'
_cell_length_a   9.31565354
_cell_length_b   9.32202704
_cell_length_c   10.11108875
_cell_angle_alpha   90.05934915
_cell_angle_beta   90.08877379
_cell_angle_gamma   60.15328999
_symmetry_Int_Tables_number   1
_chemical_formula_structural   Al17BN18
_chemical_formula_sum   'Al34 B2 N36'
_cell_volume   761.58864980
_cell_formula_units_Z   2
loop_
 _symmetry_equiv_pos_site_id
 _symmetry_equiv_pos_as_xyz
  1  'x, y, z'
loop_
 _atom_site_type_symbol
 _atom_site_label
 _atom_site_symmetry_multiplicity
 _atom_site_fract_x
 _atom_site_fract_y
 _atom_site_fract_z
 _atom_site_occupancy
  Al  Al0  1  0.09989802  0.10108650  0.39702633  1
  Al  Al1  1  0.22023435  0.20183479  0.13807982  1
  Al  Al2  1  0.77979674  0.09463211  0.81337954  1
  Al  Al3  1  0.44392306  0.09294877  0.34894824  1
  Al  Al4  1  0.55556717  0.20523077  0.06685069  1
  Al  Al5  1  0.11435119  0.09544250  0.87926443  1
  Al  Al6  1  0.21331633  0.21061761  0.63930507  1
  Al  Al7  1  0.77354490  0.09117734  0.31800261  1
  Al  Al8  1  0.89071538  0.20690298  0.13519364  1
  Al  Al9  1  0.44855001  0.08917743  0.83000491  1
  Al  Al10  1  0.56208207  0.20866563  0.57213447  1
  Al  Al11  1  0.10635737  0.42627886  0.38575997  1
  Al  Al12  1  0.22480777  0.54140769  0.07458334  1
  Al  Al13  1  0.77887991  0.43058087  0.87855542  1
  Al  Al14  1  0.89448287  0.52869463  0.63933384  1
  Al  Al15  1  0.44642750  0.42983084  0.32003042  1
  Al  Al16  1  0.54753370  0.54651784  0.06403292  1
  Al  Al17  1  0.10907435  0.42543115  0.89236860  1
  Al  Al18  1  0.22483069  0.54234731  0.56763286  1
  Al  Al19  1  0.78369761  0.41832590  0.39655383  1
  Al  Al20  1  0.88786764  0.53151111  0.13776772  1
  Al  Al21  1  0.44148430  0.43498814  0.81918730  1
  Al  Al22  1  0.55421233  0.53882221  0.58275568  1
  Al  Al23  1  0.11190624  0.76409616  0.32020747  1
  Al  Al24  1  0.22990288  0.86446528  0.06434027  1
  Al  Al25  1  0.77296738  0.76598017  0.81895071  1
  Al  Al26  1  0.89037015  0.87700852  0.56873743  1
  Al  Al27  1  0.44327678  0.76029325  0.32386654  1
  Al  Al28  1  0.55308183  0.86878850  0.06494025  1
  Al  Al29  1  0.11725458  0.75839143  0.81966701  1
  Al  Al30  1  0.22173770  0.87128372  0.58346112  1
  Al  Al31  1  0.77285342  0.76592367  0.32008107  1
  Al  Al32  1  0.88766324  0.87237292  0.06810567  1
  Al  Al33  1  0.55628113  0.86869327  0.57805256  1
  B  B34  1  0.89308751  0.20848527  0.64733440  1
  B  B35  1  0.44456077  0.75936250  0.81602799  1
  N  N36  1  0.21580659  0.20396139  0.33060499  1
  N  N37  1  0.10694062  0.09650977  0.06979652  1
  N  N38  1  0.89571758  0.21148433  0.80927429  1
  N  N39  1  0.78947606  0.10398416  0.62409865  1
  N  N40  1  0.55541641  0.20863579  0.38256337  1
  N  N41  1  0.44574805  0.09150974  0.11052557  1
  N  N42  1  0.21942880  0.21052891  0.82706123  1
  N  N43  1  0.08297300  0.11055319  0.58977552  1
  N  N44  1  0.88961779  0.20742209  0.32410877  1
  N  N45  1  0.77390226  0.09094125  0.12750177  1
  N  N46  1  0.55965211  0.20871166  0.87636883  1
  N  N47  1  0.44763303  0.09430841  0.62027914  1
  N  N48  1  0.22440686  0.54205152  0.37578147  1
  N  N49  1  0.10848310  0.42413311  0.08282213  1
  N  N50  1  0.89402091  0.53587430  0.82807786  1
  N  N51  1  0.79355577  0.39956047  0.58972903  1
  N  N52  1  0.55118876  0.54271139  0.39001842  1
  N  N53  1  0.44766890  0.42769596  0.13044145  1
  N  N54  1  0.22504397  0.54172432  0.88352194  1
  N  N55  1  0.10911907  0.42600240  0.57529425  1
  N  N56  1  0.88611942  0.53307057  0.32939195  1
  N  N57  1  0.77967026  0.42304829  0.06890771  1
  N  N58  1  0.53945479  0.56709563  0.86974146  1
  N  N59  1  0.44208358  0.42846925  0.63283147  1
  N  N60  1  0.22536320  0.86880398  0.39017378  1
  N  N61  1  0.11078468  0.76429520  0.13040423  1
  N  N62  1  0.89034092  0.87456293  0.87893445  1
  N  N63  1  0.77811156  0.76564025  0.62841098  1
  N  N64  1  0.55554947  0.86785427  0.38754757  1
  N  N65  1  0.44427154  0.76030845  0.13578920  1
  N  N66  1  0.25067050  0.85604812  0.86981746  1
  N  N67  1  0.11017750  0.75964443  0.63269329  1
  N  N68  1  0.88904968  0.87160611  0.38002412  1
  N  N69  1  0.77366017  0.76457810  0.12702855  1
  N  N70  1  0.54531801  0.85733875  0.87240531  1
  N  N71  1  0.44507386  0.76109728  0.65313889  1
