# generated using pymatgen
data_Al17BN18
_symmetry_space_group_name_H-M   'P 1'
_cell_length_a   9.32855015
_cell_length_b   9.33407103
_cell_length_c   10.06049196
_cell_angle_alpha   90.11950961
_cell_angle_beta   90.17504353
_cell_angle_gamma   60.28072199
_symmetry_Int_Tables_number   1
_chemical_formula_structural   Al17BN18
_chemical_formula_sum   'Al34 B2 N36'
_cell_volume   760.77205319
_cell_formula_units_Z   2
loop_
 _symmetry_equiv_pos_site_id
 _symmetry_equiv_pos_as_xyz
  1  'x, y, z'
loop_
 _atom_site_type_symbol
 _atom_site_label
 _atom_site_symmetry_multiplicity
 _atom_site_fract_x
 _atom_site_fract_y
 _atom_site_fract_z
 _atom_site_occupancy
  Al  Al0  1  0.10120165  0.10017355  0.38524056  1
  Al  Al1  1  0.22181331  0.20309189  0.08413812  1
  Al  Al2  1  0.77792508  0.09536403  0.80202194  1
  Al  Al3  1  0.44435871  0.09217731  0.30970422  1
  Al  Al4  1  0.55643067  0.20532761  0.05622107  1
  Al  Al5  1  0.11308133  0.09353524  0.86227067  1
  Al  Al6  1  0.21889878  0.20501916  0.60120029  1
  Al  Al7  1  0.77439174  0.09144087  0.30730017  1
  Al  Al8  1  0.89099142  0.20661832  0.12404824  1
  Al  Al9  1  0.45005723  0.08790207  0.80721419  1
  Al  Al10  1  0.56081146  0.20738442  0.55649088  1
  Al  Al11  1  0.11497951  0.42495594  0.31208772  1
  Al  Al12  1  0.22159250  0.53897738  0.05886110  1
  Al  Al13  1  0.77894003  0.43100630  0.86749885  1
  Al  Al14  1  0.88616319  0.53371142  0.62416680  1
  Al  Al15  1  0.44678054  0.42908962  0.30851191  1
  Al  Al16  1  0.54623072  0.54650348  0.05226795  1
  Al  Al17  1  0.11618790  0.43071049  0.80952857  1
  Al  Al18  1  0.22253912  0.53936778  0.55439887  1
  Al  Al19  1  0.78490740  0.41817769  0.38458440  1
  Al  Al20  1  0.88161248  0.53589258  0.12345756  1
  Al  Al21  1  0.44305351  0.43355354  0.80711461  1
  Al  Al22  1  0.55353468  0.53835936  0.57028806  1
  Al  Al23  1  0.11241264  0.76321244  0.30843802  1
  Al  Al24  1  0.22971134  0.86260954  0.05153603  1
  Al  Al25  1  0.77017260  0.76825636  0.80769838  1
  Al  Al26  1  0.89060630  0.87731881  0.55682584  1
  Al  Al27  1  0.44339916  0.76074251  0.31195754  1
  Al  Al28  1  0.55281151  0.86885850  0.05345496  1
  Al  Al29  1  0.11675558  0.75895139  0.80685677  1
  Al  Al30  1  0.22207551  0.86916364  0.57137563  1
  Al  Al31  1  0.77253031  0.76671199  0.31033017  1
  Al  Al32  1  0.88829034  0.87247038  0.05598797  1
  Al  Al33  1  0.55469128  0.87160669  0.56154116  1
  B  B34  1  0.89149156  0.20814272  0.63624888  1
  B  B35  1  0.44414948  0.75992498  0.80342549  1
  N  N36  1  0.22215459  0.20250727  0.34994476  1
  N  N37  1  0.10462978  0.09363833  0.05621867  1
  N  N38  1  0.89342186  0.21270793  0.79769616  1
  N  N39  1  0.78777124  0.10453677  0.61158184  1
  N  N40  1  0.55498610  0.20643325  0.36704436  1
  N  N41  1  0.44773485  0.09035001  0.11507636  1
  N  N42  1  0.22599120  0.20607681  0.83753862  1
  N  N43  1  0.08189159  0.10788248  0.58123099  1
  N  N44  1  0.89098032  0.20720395  0.31286064  1
  N  N45  1  0.77433488  0.09066790  0.11541425  1
  N  N46  1  0.55843957  0.20710400  0.86635551  1
  N  N47  1  0.45129854  0.09235098  0.61705638  1
  N  N48  1  0.22315522  0.54019010  0.36559499  1
  N  N49  1  0.11282657  0.42729410  0.11511586  1
  N  N50  1  0.88764459  0.54094505  0.81994157  1
  N  N51  1  0.79323586  0.39873346  0.57751659  1
  N  N52  1  0.55162209  0.54254087  0.37699380  1
  N  N53  1  0.44553962  0.42816203  0.11706738  1
  N  N54  1  0.22385324  0.54055974  0.87058759  1
  N  N55  1  0.11439679  0.43092597  0.61399330  1
  N  N56  1  0.88330580  0.53645385  0.32213207  1
  N  N57  1  0.77864455  0.42253768  0.05816450  1
  N  N58  1  0.53907647  0.56724266  0.85743829  1
  N  N59  1  0.44245081  0.42705059  0.61939515  1
  N  N60  1  0.22564852  0.86774396  0.37769729  1
  N  N61  1  0.11134563  0.76216804  0.11702420  1
  N  N62  1  0.89036727  0.87519124  0.86602177  1
  N  N63  1  0.77539085  0.76817720  0.61494065  1
  N  N64  1  0.55373633  0.87188809  0.37193363  1
  N  N65  1  0.44374530  0.76058960  0.12290147  1
  N  N66  1  0.25088972  0.85473690  0.85637089  1
  N  N67  1  0.11034020  0.75844899  0.61947720  1
  N  N68  1  0.89007705  0.87193211  0.36754693  1
  N  N69  1  0.77241723  0.76661333  0.11475105  1
  N  N70  1  0.54348085  0.86041819  0.86198689  1
  N  N71  1  0.44591951  0.76155109  0.63991299  1
