# generated using pymatgen
data_Al17BN18
_symmetry_space_group_name_H-M   'P 1'
_cell_length_a   9.32712890
_cell_length_b   9.32712984
_cell_length_c   10.07508200
_cell_angle_alpha   90.16184006
_cell_angle_beta   90.16123267
_cell_angle_gamma   60.26607165
_symmetry_Int_Tables_number   1
_chemical_formula_structural   Al17BN18
_chemical_formula_sum   'Al34 B2 N36'
_cell_volume   761.08134180
_cell_formula_units_Z   2
loop_
 _symmetry_equiv_pos_site_id
 _symmetry_equiv_pos_as_xyz
  1  'x, y, z'
loop_
 _atom_site_type_symbol
 _atom_site_label
 _atom_site_symmetry_multiplicity
 _atom_site_fract_x
 _atom_site_fract_y
 _atom_site_fract_z
 _atom_site_occupancy
  Al  Al0  1  0.10131265  0.10074748  0.38492396  1
  Al  Al1  1  0.21730105  0.20154938  0.12397534  1
  Al  Al2  1  0.77846479  0.09515221  0.80153567  1
  Al  Al3  1  0.44993481  0.08947532  0.30893405  1
  Al  Al4  1  0.55552694  0.20491602  0.05568563  1
  Al  Al5  1  0.11398280  0.09493946  0.86636919  1
  Al  Al6  1  0.21446969  0.20785780  0.62381044  1
  Al  Al7  1  0.77473195  0.09142064  0.30664482  1
  Al  Al8  1  0.89039365  0.20708179  0.12286246  1
  Al  Al9  1  0.45153764  0.08719231  0.80630535  1
  Al  Al10  1  0.56043886  0.20727285  0.55658727  1
  Al  Al11  1  0.11030696  0.42699731  0.34676361  1
  Al  Al12  1  0.22309151  0.53977903  0.06120591  1
  Al  Al13  1  0.77825298  0.43067028  0.86636855  1
  Al  Al14  1  0.89116993  0.53115756  0.62381021  1
  Al  Al15  1  0.44765553  0.42923903  0.30749695  1
  Al  Al16  1  0.54676027  0.54668668  0.05170369  1
  Al  Al17  1  0.11167097  0.42836103  0.85142179  1
  Al  Al18  1  0.22363712  0.54032426  0.55468915  1
  Al  Al19  1  0.78405879  0.41800089  0.38492419  1
  Al  Al20  1  0.88486103  0.53398774  0.12397547  1
  Al  Al21  1  0.44286144  0.43355498  0.80641179  1
  Al  Al22  1  0.55363693  0.53865781  0.57066624  1
  Al  Al23  1  0.11255111  0.76434336  0.30749694  1
  Al  Al24  1  0.22999919  0.86344755  0.05170401  1
  Al  Al25  1  0.77050389  0.76822757  0.80630507  1
  Al  Al26  1  0.89058458  0.87712739  0.55658684  1
  Al  Al27  1  0.44374075  0.76042864  0.31160303  1
  Al  Al28  1  0.55281284  0.86950044  0.05313608  1
  Al  Al29  1  0.11686739  0.75954888  0.80641139  1
  Al  Al30  1  0.22197015  0.87032483  0.57066542  1
  Al  Al31  1  0.77278642  0.76662414  0.30893361  1
  Al  Al32  1  0.88822864  0.87221345  0.05568587  1
  Al  Al33  1  0.55486130  0.87154788  0.56159970  1
  B  B34  1  0.89181351  0.20850075  0.63514410  1
  B  B35  1  0.44374436  0.76043204  0.80322821  1
  N  N36  1  0.21884961  0.19982275  0.31943190  1
  N  N37  1  0.10637781  0.09537889  0.05692772  1
  N  N38  1  0.89496864  0.21165546  0.79746274  1
  N  N39  1  0.78792906  0.10461760  0.61137697  1
  N  N40  1  0.55501091  0.20690177  0.36731095  1
  N  N41  1  0.44927283  0.08950770  0.11446127  1
  N  N42  1  0.22257473  0.20609701  0.81650520  1
  N  N43  1  0.08248579  0.10933183  0.57783326  1
  N  N44  1  0.89077582  0.20746336  0.31212611  1
  N  N45  1  0.77413787  0.09082562  0.11491429  1
  N  N46  1  0.55808588  0.20710645  0.86581689  1
  N  N47  1  0.45075757  0.09257866  0.61477539  1
  N  N48  1  0.22544862  0.54213739  0.36342840  1
  N  N49  1  0.10989013  0.42657813  0.08995176  1
  N  N50  1  0.88940794  0.53926475  0.81650495  1
  N  N51  1  0.79264384  0.39917349  0.57783358  1
  N  N52  1  0.55170174  0.54275959  0.37729493  1
  N  N53  1  0.44682251  0.42787042  0.11693701  1
  N  N54  1  0.22524897  0.54193748  0.87011673  1
  N  N55  1  0.11076305  0.42745012  0.57842400  1
  N  N56  1  0.88313288  0.53553906  0.31943225  1
  N  N57  1  0.77869135  0.42306456  0.05692727  1
  N  N58  1  0.53905620  0.56743214  0.85689553  1
  N  N59  1  0.44244663  0.42711029  0.61942279  1
  N  N60  1  0.22607111  0.86839019  0.37729449  1
  N  N61  1  0.11118221  0.76351055  0.11693716  1
  N  N62  1  0.89041856  0.87477430  0.86581702  1
  N  N63  1  0.77589130  0.76744505  0.61477502  1
  N  N64  1  0.55442716  0.87111652  0.37215244  1
  N  N65  1  0.44402235  0.76071053  0.12284728  1
  N  N66  1  0.25074502  0.85574271  0.85689578  1
  N  N67  1  0.11042185  0.75913518  0.61942233  1
  N  N68  1  0.89021274  0.87170013  0.36731052  1
  N  N69  1  0.77281979  0.76595953  0.11446096  1
  N  N70  1  0.54371913  0.86040790  0.86159344  1
  N  N71  1  0.44539070  0.76207863  0.63994591  1
