# generated using pymatgen
data_Al17BN18
_symmetry_space_group_name_H-M   'P 1'
_cell_length_a   9.29964144
_cell_length_b   9.29964121
_cell_length_c   9.93925774
_cell_angle_alpha   89.99395046
_cell_angle_beta   89.99396533
_cell_angle_gamma   60.00209507
_symmetry_Int_Tables_number   1
_chemical_formula_structural   Al17BN18
_chemical_formula_sum   'Al34 B2 N36'
_cell_volume   744.43390807
_cell_formula_units_Z   2
loop_
 _symmetry_equiv_pos_site_id
 _symmetry_equiv_pos_as_xyz
  1  'x, y, z'
loop_
 _atom_site_type_symbol
 _atom_site_label
 _atom_site_symmetry_multiplicity
 _atom_site_fract_x
 _atom_site_fract_y
 _atom_site_fract_z
 _atom_site_occupancy
  Al  Al0  1  0.10951107  0.09400832  0.31388558  1
  Al  Al1  1  0.22131757  0.20454825  0.05733618  1
  Al  Al2  1  0.78052188  0.09720444  0.80205001  1
  Al  Al3  1  0.44500998  0.09304377  0.30717033  1
  Al  Al4  1  0.55754523  0.20471918  0.05702213  1
  Al  Al5  1  0.11029429  0.09406896  0.80276323  1
  Al  Al6  1  0.21703065  0.20704284  0.55646438  1
  Al  Al7  1  0.77904637  0.09572925  0.31353057  1
  Al  Al8  1  0.88881556  0.20549931  0.05885588  1
  Al  Al9  1  0.44280976  0.09076249  0.80670576  1
  Al  Al10  1  0.55861528  0.20737628  0.55690354  1
  Al  Al11  1  0.11108837  0.42777167  0.30642323  1
  Al  Al12  1  0.22236809  0.53905163  0.05703105  1
  Al  Al13  1  0.77738564  0.42697706  0.80276304  1
  Al  Al14  1  0.89035886  0.53371417  0.55646430  1
  Al  Al15  1  0.44531661  0.42879465  0.30666191  1
  Al  Al16  1  0.55462146  0.54336228  0.05292973  1
  Al  Al17  1  0.11099053  0.42767306  0.80680244  1
  Al  Al18  1  0.22217826  0.53886268  0.55607939  1
  Al  Al19  1  0.77732443  0.42619482  0.31388574  1
  Al  Al20  1  0.88786473  0.53800142  0.05733617  1
  Al  Al21  1  0.44302689  0.43286618  0.80692950  1
  Al  Al22  1  0.55801323  0.53597607  0.56320702  1
  Al  Al23  1  0.11211088  0.76200054  0.30666206  1
  Al  Al24  1  0.22667923  0.87130417  0.05292967  1
  Al  Al25  1  0.77407918  0.75949255  0.80670584  1
  Al  Al26  1  0.89069149  0.87529990  0.55690353  1
  Al  Al27  1  0.44429657  0.76098093  0.30874339  1
  Al  Al28  1  0.55272810  0.86941164  0.05256793  1
  Al  Al29  1  0.11618218  0.75971048  0.80692935  1
  Al  Al30  1  0.21929156  0.87469785  0.56320713  1
  Al  Al31  1  0.77635934  0.76169418  0.30717031  1
  Al  Al32  1  0.88803559  0.87422888  0.05702222  1
  Al  Al33  1  0.55431656  0.87099966  0.56246727  1
  B  B34  1  0.88890644  0.20559034  0.55368392  1
  B  B35  1  0.44498041  0.76166381  0.80240883  1
  N  N36  1  0.22240675  0.20565327  0.36587700  1
  N  N37  1  0.11051182  0.09295497  0.11973076  1
  N  N38  1  0.88918928  0.20587213  0.86948617  1
  N  N39  1  0.79027715  0.10696129  0.60839324  1
  N  N40  1  0.55462596  0.20624620  0.36601683  1
  N  N41  1  0.44557000  0.09239542  0.11396916  1
  N  N42  1  0.22070334  0.20486846  0.86528247  1
  N  N43  1  0.08594499  0.10722391  0.60965265  1
  N  N44  1  0.88904486  0.20572844  0.38752955  1
  N  N45  1  0.77864910  0.09533258  0.12105310  1
  N  N46  1  0.55733364  0.20455753  0.86408983  1
  N  N47  1  0.44359827  0.09553637  0.61597998  1
  N  N48  1  0.22243023  0.53911401  0.36461785  1
  N  N49  1  0.11092748  0.42761089  0.11546952  1
  N  N50  1  0.88818556  0.53738599  0.86528239  1
  N  N51  1  0.79053974  0.40262877  0.60965243  1
  N  N52  1  0.55417810  0.54074347  0.37152390  1
  N  N53  1  0.44613400  0.42867756  0.11390589  1
  N  N54  1  0.22189787  0.53858131  0.86677342  1
  N  N55  1  0.11133031  0.42801411  0.61606136  1
  N  N56  1  0.88896958  0.53909050  0.36587682  1
  N  N57  1  0.77627185  0.42719524  0.11973093  1
  N  N58  1  0.54538152  0.56279260  0.85725062  1
  N  N59  1  0.44326619  0.42798439  0.61705350  1
  N  N60  1  0.22405939  0.87086218  0.37152401  1
  N  N61  1  0.11199402  0.76281743  0.11390598  1
  N  N62  1  0.88787406  0.87401658  0.86409001  1
  N  N63  1  0.77885295  0.76028158  0.61598009  1
  N  N64  1  0.55471819  0.87140232  0.37023280  1
  N  N65  1  0.44418803  0.76087121  0.11936366  1
  N  N66  1  0.24610925  0.86206468  0.85725056  1
  N  N67  1  0.11129991  0.75995063  0.61705336  1
  N  N68  1  0.88956253  0.87130932  0.36601691  1
  N  N69  1  0.77571179  0.76225373  0.11396918  1
  N  N70  1  0.54294681  0.85963001  0.85856961  1
  N  N71  1  0.44427340  0.76095734  0.63692844  1
