# generated using pymatgen
data_Al17BN18
_symmetry_space_group_name_H-M   'P 1'
_cell_length_a   9.32282368
_cell_length_b   9.31901391
_cell_length_c   10.01676017
_cell_angle_alpha   89.73894791
_cell_angle_beta   89.92286426
_cell_angle_gamma   60.06372960
_symmetry_Int_Tables_number   1
_chemical_formula_structural   Al17BN18
_chemical_formula_sum   'Al34 B2 N36'
_cell_volume   754.13503823
_cell_formula_units_Z   2
loop_
 _symmetry_equiv_pos_site_id
 _symmetry_equiv_pos_as_xyz
  1  'x, y, z'
loop_
 _atom_site_type_symbol
 _atom_site_label
 _atom_site_symmetry_multiplicity
 _atom_site_fract_x
 _atom_site_fract_y
 _atom_site_fract_z
 _atom_site_occupancy
  Al  Al0  1  0.11572874  0.09077878  0.30566091  1
  Al  Al1  1  0.22440308  0.20533260  0.05840491  1
  Al  Al2  1  0.78092699  0.09712157  0.81154231  1
  Al  Al3  1  0.44517054  0.09339716  0.30985155  1
  Al  Al4  1  0.55516721  0.20480671  0.05586033  1
  Al  Al5  1  0.11143479  0.09333936  0.82121908  1
  Al  Al6  1  0.21547225  0.20750964  0.55922174  1
  Al  Al7  1  0.77550310  0.09205526  0.30377915  1
  Al  Al8  1  0.88769751  0.20640365  0.09552143  1
  Al  Al9  1  0.44338238  0.09025638  0.80753966  1
  Al  Al10  1  0.55953648  0.20811291  0.55940905  1
  Al  Al11  1  0.11039152  0.42752297  0.30961365  1
  Al  Al12  1  0.22167142  0.53914060  0.05986306  1
  Al  Al13  1  0.77558894  0.42924963  0.87423301  1
  Al  Al14  1  0.89413764  0.53567924  0.56343410  1
  Al  Al15  1  0.44604839  0.42819314  0.30963686  1
  Al  Al16  1  0.54432600  0.54901105  0.05723770  1
  Al  Al17  1  0.11283605  0.42816434  0.80824815  1
  Al  Al18  1  0.22276940  0.53909072  0.55729198  1
  Al  Al19  1  0.78223563  0.41634117  0.37071869  1
  Al  Al20  1  0.89074035  0.54354450  0.06012804  1
  Al  Al21  1  0.44194704  0.43326962  0.80878605  1
  Al  Al22  1  0.55434643  0.53749773  0.57123281  1
  Al  Al23  1  0.11126308  0.76266421  0.30923257  1
  Al  Al24  1  0.22843690  0.86814262  0.05440911  1
  Al  Al25  1  0.77311283  0.76073348  0.80721049  1
  Al  Al26  1  0.89157264  0.87676814  0.55886115  1
  Al  Al27  1  0.44492420  0.76033868  0.31246337  1
  Al  Al28  1  0.55275286  0.86960466  0.05597516  1
  Al  Al29  1  0.11617015  0.75910850  0.80852374  1
  Al  Al30  1  0.21686007  0.87664816  0.56596759  1
  Al  Al31  1  0.77626196  0.76112823  0.31002298  1
  Al  Al32  1  0.88793225  0.87240000  0.05549831  1
  Al  Al33  1  0.55364036  0.87171368  0.56381323  1
  B  B34  1  0.89057679  0.20537705  0.60085269  1
  B  B35  1  0.44339338  0.76105539  0.80525571  1
  N  N36  1  0.22216029  0.20482253  0.36930478  1
  N  N37  1  0.12201230  0.08700328  0.11159924  1
  N  N38  1  0.89201717  0.19983293  0.87414031  1
  N  N39  1  0.79326793  0.10936550  0.61496267  1
  N  N40  1  0.55632471  0.20535047  0.36978592  1
  N  N41  1  0.44591678  0.09256782  0.11762284  1
  N  N42  1  0.22344985  0.20681351  0.86776996  1
  N  N43  1  0.08132868  0.10949435  0.61582442  1
  N  N44  1  0.88847085  0.20673573  0.31054777  1
  N  N45  1  0.77208384  0.08887603  0.11433168  1
  N  N46  1  0.55539793  0.20567474  0.86453508  1
  N  N47  1  0.44355402  0.09548518  0.61766521  1
  N  N48  1  0.22252796  0.53889618  0.36734912  1
  N  N49  1  0.11126863  0.42727634  0.11988066  1
  N  N50  1  0.89350154  0.54215465  0.86543048  1
  N  N51  1  0.79636541  0.39217949  0.58010516  1
  N  N52  1  0.55081979  0.54225739  0.37757856  1
  N  N53  1  0.44468669  0.42770023  0.11789446  1
  N  N54  1  0.22240505  0.53877872  0.87020596  1
  N  N55  1  0.11381444  0.42724684  0.61909846  1
  N  N56  1  0.89000238  0.54057516  0.37136963  1
  N  N57  1  0.77057399  0.43572581  0.07392010  1
  N  N58  1  0.53767740  0.56719882  0.85846770  1
  N  N59  1  0.44250586  0.42722874  0.62050408  1
  N  N60  1  0.22344638  0.87189742  0.37471317  1
  N  N61  1  0.11109727  0.76249559  0.11684676  1
  N  N62  1  0.88873915  0.87186038  0.86436868  1
  N  N63  1  0.77772507  0.76254443  0.61787754  1
  N  N64  1  0.55472183  0.87142851  0.37286853  1
  N  N65  1  0.44317406  0.76196501  0.12432517  1
  N  N66  1  0.24738845  0.85921867  0.86009414  1
  N  N67  1  0.11148077  0.75949464  0.61926302  1
  N  N68  1  0.88864129  0.87251519  0.36933389  1
  N  N69  1  0.77553407  0.76320193  0.11821211  1
  N  N70  1  0.54303201  0.85965476  0.86188036  1
  N  N71  1  0.44285329  0.76284604  0.63973557  1
