# generated using pymatgen
data_Al17BN18
_symmetry_space_group_name_H-M   'P 1'
_cell_length_a   9.32830124
_cell_length_b   9.32342951
_cell_length_c   10.04398907
_cell_angle_alpha   90.00930240
_cell_angle_beta   89.99963665
_cell_angle_gamma   60.15618527
_symmetry_Int_Tables_number   1
_chemical_formula_structural   Al17BN18
_chemical_formula_sum   'Al34 B2 N36'
_cell_volume   757.69856403
_cell_formula_units_Z   2
loop_
 _symmetry_equiv_pos_site_id
 _symmetry_equiv_pos_as_xyz
  1  'x, y, z'
loop_
 _atom_site_type_symbol
 _atom_site_label
 _atom_site_symmetry_multiplicity
 _atom_site_fract_x
 _atom_site_fract_y
 _atom_site_fract_z
 _atom_site_occupancy
  Al  Al0  1  0.10394241  0.10339077  0.40520719  1
  Al  Al1  1  0.22123998  0.20382119  0.14840082  1
  Al  Al2  1  0.77779872  0.09573794  0.89509084  1
  Al  Al3  1  0.44511731  0.09392565  0.40061347  1
  Al  Al4  1  0.55674773  0.20817504  0.14860988  1
  Al  Al5  1  0.11160245  0.09656164  0.88554703  1
  Al  Al6  1  0.21672319  0.20756885  0.64969206  1
  Al  Al7  1  0.78004673  0.09853557  0.40284215  1
  Al  Al8  1  0.88982785  0.20605942  0.14542174  1
  Al  Al9  1  0.44284671  0.08908702  0.90022441  1
  Al  Al10  1  0.55969737  0.20383048  0.65127896  1
  Al  Al11  1  0.11167630  0.42779033  0.39731906  1
  Al  Al12  1  0.22413272  0.53986599  0.14697745  1
  Al  Al13  1  0.77949693  0.42833171  0.88479507  1
  Al  Al14  1  0.89171339  0.53338960  0.64978032  1
  Al  Al15  1  0.44364305  0.42583088  0.40222389  1
  Al  Al16  1  0.55242276  0.55124178  0.07381323  1
  Al  Al17  1  0.11044530  0.42711185  0.90222010  1
  Al  Al18  1  0.22118171  0.53402356  0.64966103  1
  Al  Al19  1  0.78650587  0.42097045  0.40514362  1
  Al  Al20  1  0.88816935  0.53793641  0.14851538  1
  Al  Al21  1  0.44043531  0.42859994  0.89338012  1
  Al  Al22  1  0.55745927  0.53641653  0.59691458  1
  Al  Al23  1  0.11051948  0.76092418  0.39069547  1
  Al  Al24  1  0.23246981  0.86701451  0.07281710  1
  Al  Al25  1  0.77235301  0.75955297  0.90052958  1
  Al  Al26  1  0.88477291  0.87793806  0.64956502  1
  Al  Al27  1  0.44278919  0.75851213  0.33368404  1
  Al  Al28  1  0.55913797  0.87678711  0.15023304  1
  Al  Al29  1  0.11370082  0.75900332  0.87445615  1
  Al  Al30  1  0.21998340  0.87318752  0.59537924  1
  Al  Al31  1  0.77675469  0.76162994  0.40075271  1
  Al  Al32  1  0.89009222  0.87429243  0.14738847  1
  Al  Al33  1  0.55528419  0.87207537  0.65523680  1
  B  B34  1  0.88967825  0.20615967  0.65434656  1
  B  B35  1  0.44139732  0.75710657  0.82064606  1
  N  N36  1  0.22209988  0.20440625  0.33999097  1
  N  N37  1  0.10797368  0.09889685  0.07985615  1
  N  N38  1  0.88808209  0.20414196  0.81777633  1
  N  N39  1  0.78867340  0.10706149  0.59553557  1
  N  N40  1  0.55753879  0.20622603  0.34050809  1
  N  N41  1  0.44393003  0.09618130  0.08993505  1
  N  N42  1  0.22301956  0.20779523  0.83761946  1
  N  N43  1  0.08243812  0.11153880  0.60113865  1
  N  N44  1  0.88983084  0.20641467  0.33451889  1
  N  N45  1  0.77799365  0.09629247  0.08568078  1
  N  N46  1  0.55520236  0.20304428  0.83981020  1
  N  N47  1  0.44338235  0.09181731  0.59105851  1
  N  N48  1  0.22480392  0.53817921  0.33836530  1
  N  N49  1  0.11154792  0.42738403  0.09154296  1
  N  N50  1  0.89145588  0.53974235  0.83772108  1
  N  N51  1  0.79530479  0.39901383  0.60182451  1
  N  N52  1  0.55691404  0.54526750  0.39993493  1
  N  N53  1  0.44442933  0.42706621  0.08611435  1
  N  N54  1  0.22149247  0.53413593  0.83795907  1
  N  N55  1  0.11029451  0.42637995  0.58614589  1
  N  N56  1  0.88849494  0.53862581  0.34006236  1
  N  N57  1  0.78312128  0.42456355  0.08010604  1
  N  N58  1  0.54100986  0.56734976  0.87583139  1
  N  N59  1  0.44044565  0.42159598  0.59402710  1
  N  N60  1  0.22886997  0.87292380  0.39988076  1
  N  N61  1  0.11058209  0.76122572  0.09333052  1
  N  N62  1  0.88352075  0.87368744  0.83912344  1
  N  N63  1  0.77477654  0.75975800  0.59078626  1
  N  N64  1  0.55916330  0.87613633  0.34153439  1
  N  N65  1  0.44219512  0.76031816  0.14470141  1
  N  N66  1  0.25139337  0.85776224  0.87553096  1
  N  N67  1  0.10667620  0.75728271  0.60414236  1
  N  N68  1  0.88725858  0.87565959  0.34114099  1
  N  N69  1  0.77851033  0.76077702  0.09002988  1
  N  N70  1  0.54598449  0.86245108  0.84576321  1
  N  N71  1  0.43871778  0.75525482  0.66025034  1
