# generated using pymatgen
data_Al17BN18
_symmetry_space_group_name_H-M   'P 1'
_cell_length_a   9.29964140
_cell_length_b   9.29964133
_cell_length_c   9.93925490
_cell_angle_alpha   89.99398586
_cell_angle_beta   89.99397084
_cell_angle_gamma   60.00210371
_symmetry_Int_Tables_number   1
_chemical_formula_structural   Al17BN18
_chemical_formula_sum   'Al34 B2 N36'
_cell_volume   744.43376660
_cell_formula_units_Z   2
loop_
 _symmetry_equiv_pos_site_id
 _symmetry_equiv_pos_as_xyz
  1  'x, y, z'
loop_
 _atom_site_type_symbol
 _atom_site_label
 _atom_site_symmetry_multiplicity
 _atom_site_fract_x
 _atom_site_fract_y
 _atom_site_fract_z
 _atom_site_occupancy
  Al  Al0  1  0.10661842  0.09534240  0.40643941  1
  Al  Al1  1  0.22118754  0.20464606  0.15271017  1
  Al  Al2  1  0.77898244  0.09564643  0.89690401  1
  Al  Al3  1  0.44526249  0.09241908  0.40234956  1
  Al  Al4  1  0.55693856  0.20495292  0.15220075  1
  Al  Al5  1  0.11400682  0.09194926  0.89616483  1
  Al  Al6  1  0.21711557  0.20693684  0.65244143  1
  Al  Al7  1  0.78057073  0.09723521  0.40680136  1
  Al  Al8  1  0.88900130  0.20566620  0.15062489  1
  Al  Al9  1  0.44260633  0.09134677  0.90246759  1
  Al  Al10  1  0.55921888  0.20715411  0.65266574  1
  Al  Al11  1  0.11093074  0.42759516  0.40234032  1
  Al  Al12  1  0.22221030  0.53887501  0.15294875  1
  Al  Al13  1  0.77528418  0.43067159  0.89616479  1
  Al  Al14  1  0.89027156  0.53378070  0.65244141  1
  Al  Al15  1  0.44543341  0.42864544  0.40203509  1
  Al  Al16  1  0.55597374  0.54045141  0.14548656  1
  Al  Al17  1  0.11112022  0.42778425  0.90329333  1
  Al  Al18  1  0.22230829  0.53897380  0.65256959  1
  Al  Al19  1  0.77867748  0.42328382  0.40643935  1
  Al  Al20  1  0.88798148  0.53785263  0.15271028  1
  Al  Al21  1  0.44293973  0.43293315  0.90290718  1
  Al  Al22  1  0.55591349  0.53966885  0.65660582  1
  Al  Al23  1  0.11198043  0.76209856  0.40203512  1
  Al  Al24  1  0.22378764  0.87263744  0.14548629  1
  Al  Al25  1  0.77468184  0.75927077  0.90246744  1
  Al  Al26  1  0.89048814  0.87588491  0.65266563  1
  Al  Al27  1  0.44448249  0.76114806  0.40051302  1
  Al  Al28  1  0.55425283  0.87091696  0.14584185  1
  Al  Al29  1  0.11626784  0.75960466  0.90290716  1
  Al  Al30  1  0.22300462  0.87257768  0.65660609  1
  Al  Al31  1  0.77575327  0.76192828  0.40234964  1
  Al  Al32  1  0.88828823  0.87360334  0.15220075  1
  Al  Al33  1  0.55277673  0.86944176  0.65731897  1
  B  B34  1  0.88831811  0.20498275  0.65696076  1
  B  B35  1  0.44439195  0.76105647  0.90568581  1
  N  N36  1  0.22130429  0.20382930  0.34546536  1
  N  N37  1  0.10923949  0.09578386  0.08784732  1
  N  N38  1  0.88902497  0.20568955  0.82244204  1
  N  N39  1  0.79035133  0.10701685  0.60079988  1
  N  N40  1  0.55758658  0.20439342  0.34540143  1
  N  N41  1  0.44373586  0.09533689  0.09335428  1
  N  N42  1  0.22199804  0.20669651  0.84231748  1
  N  N43  1  0.08718901  0.10458205  0.60211845  1
  N  N44  1  0.88911028  0.20577546  0.34000417  1
  N  N45  1  0.77857972  0.09524433  0.08913768  1
  N  N46  1  0.55444557  0.20636500  0.84339120  1
  N  N47  1  0.44542408  0.09263040  0.59528097  1
  N  N48  1  0.22237106  0.53903603  0.34390165  1
  N  N49  1  0.11086814  0.42753266  0.09475433  1
  N  N50  1  0.89003210  0.53866232  0.84231754  1
  N  N51  1  0.78791750  0.40385367  0.60211839  1
  N  N52  1  0.55702652  0.53945142  0.33963987  1
  N  N53  1  0.44432872  0.42755629  0.09349426  1
  N  N54  1  0.22196810  0.53863289  0.84331035  1
  N  N55  1  0.11140078  0.42806590  0.59259752  1
  N  N56  1  0.88716450  0.53796960  0.34546552  1
  N  N57  1  0.77911971  0.42590406  0.08784723  1
  N  N58  1  0.54275859  0.56401804  0.84971680  1
  N  N59  1  0.44511281  0.42926024  0.59408823  1
  N  N60  1  0.22278629  0.87369145  0.33963971  1
  N  N61  1  0.11089161  0.76099327  0.09349423  1
  N  N62  1  0.88970005  0.87111003  0.84339102  1
  N  N63  1  0.77596521  0.76208928  0.59528099  1
  N  N64  1  0.55464948  0.87131493  0.33831843  1
  N  N65  1  0.44425392  0.76091777  0.07184140  1
  N  N66  1  0.24735331  0.85942326  0.84971703  1
  N  N67  1  0.11259475  0.76177825  0.59408832  1
  N  N68  1  0.88772855  0.87425138  0.34540139  1
  N  N69  1  0.77867247  0.76040053  0.09335411  1
  N  N70  1  0.54302067  0.85968542  0.85097612  1
  N  N71  1  0.44410946  0.76077396  0.58988212  1
