# generated using pymatgen
data_Al17BN18
_symmetry_space_group_name_H-M   'P 1'
_cell_length_a   9.35708012
_cell_length_b   9.35707503
_cell_length_c   10.07628437
_cell_angle_alpha   90.10702718
_cell_angle_beta   90.10855500
_cell_angle_gamma   60.12426927
_symmetry_Int_Tables_number   1
_chemical_formula_structural   Al17BN18
_chemical_formula_sum   'Al34 B2 N36'
_cell_volume   764.98505774
_cell_formula_units_Z   2
loop_
 _symmetry_equiv_pos_site_id
 _symmetry_equiv_pos_as_xyz
  1  'x, y, z'
loop_
 _atom_site_type_symbol
 _atom_site_label
 _atom_site_symmetry_multiplicity
 _atom_site_fract_x
 _atom_site_fract_y
 _atom_site_fract_z
 _atom_site_occupancy
  Al  Al0  1  0.10429388  0.10123647  0.39263636  1
  Al  Al1  1  0.22093181  0.20220460  0.13726903  1
  Al  Al2  1  0.78157645  0.09826507  0.86933403  1
  Al  Al3  1  0.44164017  0.09165513  0.39214671  1
  Al  Al4  1  0.55336080  0.21181079  0.06464878  1
  Al  Al5  1  0.11141951  0.09516017  0.87536013  1
  Al  Al6  1  0.21337800  0.21035821  0.63819151  1
  Al  Al7  1  0.78330303  0.09998797  0.38925510  1
  Al  Al8  1  0.88912673  0.20581009  0.13327645  1
  Al  Al9  1  0.43718011  0.09122819  0.87802465  1
  Al  Al10  1  0.55709086  0.21268832  0.58062658  1
  Al  Al11  1  0.10891054  0.42559236  0.38204012  1
  Al  Al12  1  0.22456447  0.54124741  0.07414782  1
  Al  Al13  1  0.77847779  0.42810332  0.87536085  1
  Al  Al14  1  0.89367583  0.53006213  0.63819196  1
  Al  Al15  1  0.44835486  0.42752589  0.31959008  1
  Al  Al16  1  0.54903682  0.54612093  0.06211150  1
  Al  Al17  1  0.10841323  0.42509612  0.89080059  1
  Al  Al18  1  0.22500732  0.54168949  0.56471928  1
  Al  Al19  1  0.78455281  0.42097826  0.39263623  1
  Al  Al20  1  0.88552291  0.53761616  0.13726905  1
  Al  Al21  1  0.43931535  0.43646756  0.81703028  1
  Al  Al22  1  0.55492034  0.53790122  0.57856244  1
  Al  Al23  1  0.11084185  0.76503827  0.31959007  1
  Al  Al24  1  0.22943735  0.86571788  0.06211150  1
  Al  Al25  1  0.77454324  0.75386584  0.87802507  1
  Al  Al26  1  0.89600603  0.87377260  0.58062680  1
  Al  Al27  1  0.44363563  0.76032143  0.32228887  1
  Al  Al28  1  0.55471319  0.87139738  0.10489925  1
  Al  Al29  1  0.11978208  0.75600042  0.81703085  1
  Al  Al30  1  0.22121785  0.87160182  0.57856302  1
  Al  Al31  1  0.77497249  0.75832353  0.39214624  1
  Al  Al32  1  0.89512600  0.87004713  0.06464832  1
  Al  Al33  1  0.55457082  0.87125475  0.63455620  1
  B  B34  1  0.88985681  0.20654069  0.64166140  1
  B  B35  1  0.44091707  0.75760013  0.81167978  1
  N  N36  1  0.22189592  0.20261256  0.32728938  1
  N  N37  1  0.10739745  0.09742709  0.06865266  1
  N  N38  1  0.89050931  0.20719481  0.80412507  1
  N  N39  1  0.79340584  0.11008793  0.59072933  1
  N  N40  1  0.55418734  0.21088745  0.38238556  1
  N  N41  1  0.43846377  0.09515617  0.07274287  1
  N  N42  1  0.21804484  0.20966608  0.82455957  1
  N  N43  1  0.08379354  0.11066210  0.58707294  1
  N  N44  1  0.89010847  0.20679506  0.32133953  1
  N  N45  1  0.78138925  0.09807486  0.07165695  1
  N  N46  1  0.55103630  0.21233494  0.86642939  1
  N  N47  1  0.43882484  0.09466288  0.58784008  1
  N  N48  1  0.22538967  0.54207117  0.37286772  1
  N  N49  1  0.10803438  0.42471839  0.08294151  1
  N  N50  1  0.89298061  0.53473167  0.82455994  1
  N  N51  1  0.79398078  0.40047674  0.58707256  1
  N  N52  1  0.55287770  0.54234619  0.38637822  1
  N  N53  1  0.44748680  0.42851813  0.12912862  1
  N  N54  1  0.22428184  0.54096421  0.88272411  1
  N  N55  1  0.10922182  0.42590687  0.57360789  1
  N  N56  1  0.88592864  0.53858103  0.32728910  1
  N  N57  1  0.78074583  0.42408200  0.06865254  1
  N  N58  1  0.53924397  0.56667623  0.86834921  1
  N  N59  1  0.44006400  0.43190640  0.63121428  1
  N  N60  1  0.22566233  0.86956163  0.38637818  1
  N  N61  1  0.11183544  0.76416812  0.12912835  1
  N  N62  1  0.89564983  0.86772370  0.86642898  1
  N  N63  1  0.77797757  0.75551041  0.58783996  1
  N  N64  1  0.55572114  0.87240585  0.34985655  1
  N  N65  1  0.44166646  0.75834787  0.13216907  1
  N  N66  1  0.24999245  0.85592767  0.86834876  1
  N  N67  1  0.11522502  0.75674382  0.63121473  1
  N  N68  1  0.89420479  0.87087152  0.38238513  1
  N  N69  1  0.77847088  0.75515056  0.07274274  1
  N  N70  1  0.54356664  0.86025239  0.84015461  1
  N  N71  1  0.43917636  0.75585852  0.64949327  1
