# generated using pymatgen
data_Al17BN18
_symmetry_space_group_name_H-M   'P 1'
_cell_length_a   9.31112989
_cell_length_b   9.31640780
_cell_length_c   9.99492453
_cell_angle_alpha   90.04603319
_cell_angle_beta   89.78044088
_cell_angle_gamma   60.02063487
_symmetry_Int_Tables_number   1
_chemical_formula_structural   Al17BN18
_chemical_formula_sum   'Al34 B2 N36'
_cell_volume   751.01042365
_cell_formula_units_Z   2
loop_
 _symmetry_equiv_pos_site_id
 _symmetry_equiv_pos_as_xyz
  1  'x, y, z'
loop_
 _atom_site_type_symbol
 _atom_site_label
 _atom_site_symmetry_multiplicity
 _atom_site_fract_x
 _atom_site_fract_y
 _atom_site_fract_z
 _atom_site_occupancy
  Al  Al0  1  0.10250895  0.10315276  0.40077925  1
  Al  Al1  1  0.22204377  0.20411615  0.14753471  1
  Al  Al2  1  0.77829081  0.09606135  0.89367479  1
  Al  Al3  1  0.44496880  0.09499283  0.40017656  1
  Al  Al4  1  0.55659663  0.20510550  0.14775376  1
  Al  Al5  1  0.11453167  0.09152735  0.88698092  1
  Al  Al6  1  0.21662270  0.20835500  0.64891200  1
  Al  Al7  1  0.78066007  0.09727140  0.40157489  1
  Al  Al8  1  0.88885294  0.20596400  0.14531055  1
  Al  Al9  1  0.44158077  0.09023992  0.89813828  1
  Al  Al10  1  0.55953403  0.20671732  0.64969160  1
  Al  Al11  1  0.11076208  0.42823128  0.39742342  1
  Al  Al12  1  0.22310399  0.53884875  0.14807728  1
  Al  Al13  1  0.77353059  0.43267115  0.89223013  1
  Al  Al14  1  0.89073547  0.53378948  0.64912614  1
  Al  Al15  1  0.44522863  0.42674927  0.40005476  1
  Al  Al16  1  0.55820023  0.53640476  0.15119370  1
  Al  Al17  1  0.11033780  0.42758482  0.90035000  1
  Al  Al18  1  0.22189641  0.53723638  0.64954480  1
  Al  Al19  1  0.78042882  0.42197158  0.40437263  1
  Al  Al20  1  0.88657041  0.53876074  0.14851336  1
  Al  Al21  1  0.44203521  0.43414576  0.89882747  1
  Al  Al22  1  0.55660371  0.53816712  0.64544342  1
  Al  Al23  1  0.10833702  0.75983871  0.39760293  1
  Al  Al24  1  0.22671182  0.87128840  0.12128439  1
  Al  Al25  1  0.77272093  0.75875563  0.89866342  1
  Al  Al26  1  0.88935308  0.87679562  0.65025398  1
  Al  Al27  1  0.44801258  0.75966483  0.38176451  1
  Al  Al28  1  0.55673176  0.87267596  0.15168219  1
  Al  Al29  1  0.11662447  0.75802622  0.89456311  1
  Al  Al30  1  0.22069740  0.87458524  0.60567680  1
  Al  Al31  1  0.77821162  0.76203619  0.40079585  1
  Al  Al32  1  0.88832812  0.87373304  0.14706488  1
  Al  Al33  1  0.55340048  0.86954512  0.64575703  1
  B  B34  1  0.88785150  0.20683655  0.65285975  1
  B  B35  1  0.44109140  0.76208277  0.85950290  1
  N  N36  1  0.22201194  0.20510635  0.33951605  1
  N  N37  1  0.10861746  0.09716564  0.08061349  1
  N  N38  1  0.88749557  0.20659711  0.81804918  1
  N  N39  1  0.79045760  0.10688637  0.59583970  1
  N  N40  1  0.55754486  0.20462188  0.34050805  1
  N  N41  1  0.44507289  0.09373180  0.08811351  1
  N  N42  1  0.22193074  0.20732835  0.83754497  1
  N  N43  1  0.08344736  0.11148644  0.59739279  1
  N  N44  1  0.88813967  0.20699098  0.33396388  1
  N  N45  1  0.77869930  0.09525972  0.08483910  1
  N  N46  1  0.55427330  0.20608473  0.83967684  1
  N  N47  1  0.44413508  0.09452078  0.59192363  1
  N  N48  1  0.22320027  0.53834811  0.33831168  1
  N  N49  1  0.11068666  0.42765504  0.09060171  1
  N  N50  1  0.88982604  0.53863448  0.83838022  1
  N  N51  1  0.78938137  0.40306552  0.59884954  1
  N  N52  1  0.56190654  0.53030772  0.34307474  1
  N  N53  1  0.44560759  0.42750033  0.08840678  1
  N  N54  1  0.22204464  0.53679592  0.83900158  1
  N  N55  1  0.11119717  0.42773716  0.58747157  1
  N  N56  1  0.88691104  0.53846743  0.34131511  1
  N  N57  1  0.77814143  0.42606320  0.08290821  1
  N  N58  1  0.53987465  0.56848487  0.83970360  1
  N  N59  1  0.44399669  0.42763650  0.59095933  1
  N  N60  1  0.21700306  0.87770929  0.36611045  1
  N  N61  1  0.11050264  0.76037585  0.08670438  1
  N  N62  1  0.88808785  0.87167513  0.83973859  1
  N  N63  1  0.77835990  0.76124801  0.59237958  1
  N  N64  1  0.55996761  0.87603468  0.34193549  1
  N  N65  1  0.44833996  0.75875076  0.12166062  1
  N  N66  1  0.25303006  0.85597226  0.85277886  1
  N  N67  1  0.10876506  0.75721916  0.59032352  1
  N  N68  1  0.88754056  0.87437660  0.33931709  1
  N  N69  1  0.77801985  0.76123536  0.08841007  1
  N  N70  1  0.53999576  0.85723734  0.84080372  1
  N  N71  1  0.45102447  0.75650411  0.57932199  1
