# generated using pymatgen
data_Al17BN18
_symmetry_space_group_name_H-M   'P 1'
_cell_length_a   9.31634713
_cell_length_b   9.31685042
_cell_length_c   10.06958840
_cell_angle_alpha   89.81705231
_cell_angle_beta   89.80434677
_cell_angle_gamma   60.09800313
_symmetry_Int_Tables_number   1
_chemical_formula_structural   Al17BN18
_chemical_formula_sum   'Al34 B2 N36'
_cell_volume   757.67332964
_cell_formula_units_Z   2
loop_
 _symmetry_equiv_pos_site_id
 _symmetry_equiv_pos_as_xyz
  1  'x, y, z'
loop_
 _atom_site_type_symbol
 _atom_site_label
 _atom_site_symmetry_multiplicity
 _atom_site_fract_x
 _atom_site_fract_y
 _atom_site_fract_z
 _atom_site_occupancy
  Al  Al0  1  0.10381507  0.10351216  0.40401335  1
  Al  Al1  1  0.22129712  0.20483830  0.14842514  1
  Al  Al2  1  0.77857707  0.09532778  0.89415225  1
  Al  Al3  1  0.44505253  0.09374830  0.40118999  1
  Al  Al4  1  0.55708355  0.20695781  0.14818846  1
  Al  Al5  1  0.11199661  0.09584043  0.88552425  1
  Al  Al6  1  0.21674137  0.20800948  0.64950686  1
  Al  Al7  1  0.78064505  0.09716372  0.40261990  1
  Al  Al8  1  0.88945268  0.20580215  0.14555359  1
  Al  Al9  1  0.44299494  0.08899393  0.89983249  1
  Al  Al10  1  0.55969647  0.20448815  0.65096068  1
  Al  Al11  1  0.11162912  0.42831665  0.39776652  1
  Al  Al12  1  0.22343538  0.54016726  0.14790082  1
  Al  Al13  1  0.77896531  0.42886464  0.88598974  1
  Al  Al14  1  0.89114810  0.53340562  0.64951400  1
  Al  Al15  1  0.44258321  0.42531096  0.40051960  1
  Al  Al16  1  0.55229285  0.55054423  0.07602230  1
  Al  Al17  1  0.11062444  0.42729534  0.90108313  1
  Al  Al18  1  0.22007262  0.53677275  0.65044744  1
  Al  Al19  1  0.78691399  0.42037995  0.40366977  1
  Al  Al20  1  0.88826016  0.53791500  0.14850221  1
  Al  Al21  1  0.44025889  0.42976126  0.89369844  1
  Al  Al22  1  0.55685755  0.53668925  0.59320610  1
  Al  Al23  1  0.10869899  0.75928243  0.40094685  1
  Al  Al24  1  0.23408666  0.86900860  0.07531904  1
  Al  Al25  1  0.77226225  0.75967014  0.89988217  1
  Al  Al26  1  0.88768564  0.87641201  0.65106618  1
  Al  Al27  1  0.44187721  0.75879494  0.33454908  1
  Al  Al28  1  0.55980812  0.87637321  0.15143279  1
  Al  Al29  1  0.11292933  0.75685850  0.89369594  1
  Al  Al30  1  0.21998438  0.87358541  0.59379680  1
  Al  Al31  1  0.77714531  0.76169692  0.40119486  1
  Al  Al32  1  0.89058121  0.87358817  0.14820012  1
  Al  Al33  1  0.55518714  0.87185982  0.65496394  1
  B  B34  1  0.88962974  0.20656590  0.65349415  1
  B  B35  1  0.44069725  0.75721599  0.82248285  1
  N  N36  1  0.22212575  0.20522517  0.33969737  1
  N  N37  1  0.10788351  0.09991340  0.08050771  1
  N  N38  1  0.88799779  0.20505868  0.81733636  1
  N  N39  1  0.78958741  0.10625077  0.59552946  1
  N  N40  1  0.55786712  0.20516009  0.33980789  1
  N  N41  1  0.44420937  0.09534564  0.08940412  1
  N  N42  1  0.22305489  0.20788253  0.83716435  1
  N  N43  1  0.08263528  0.11175390  0.60037879  1
  N  N44  1  0.88957330  0.20594407  0.33389739  1
  N  N45  1  0.77885443  0.09532745  0.08488249  1
  N  N46  1  0.55521941  0.20378319  0.83943139  1
  N  N47  1  0.44361460  0.09214369  0.59105522  1
  N  N48  1  0.22320550  0.54004325  0.33723188  1
  N  N49  1  0.11153100  0.42814134  0.09041982  1
  N  N50  1  0.89112774  0.53968306  0.83723556  1
  N  N51  1  0.79492839  0.39937320  0.60005466  1
  N  N52  1  0.55703020  0.54366249  0.39703219  1
  N  N53  1  0.44378483  0.42663353  0.08651208  1
  N  N54  1  0.22051051  0.53713525  0.83780287  1
  N  N55  1  0.11049140  0.42727495  0.58644101  1
  N  N56  1  0.88860574  0.53878705  0.33969662  1
  N  N57  1  0.78324510  0.42443489  0.08091859  1
  N  N58  1  0.54056199  0.56863480  0.87841027  1
  N  N59  1  0.43939008  0.42231069  0.59247777  1
  N  N60  1  0.22707865  0.87368904  0.39764231  1
  N  N61  1  0.11019596  0.76039863  0.08626403  1
  N  N62  1  0.88698472  0.87193772  0.83948626  1
  N  N63  1  0.77547426  0.76028347  0.59106868  1
  N  N64  1  0.55919221  0.87578819  0.34234552  1
  N  N65  1  0.44290574  0.75979300  0.14650437  1
  N  N66  1  0.25173231  0.85734133  0.87787833  1
  N  N67  1  0.10555834  0.75611086  0.59272223  1
  N  N68  1  0.88872172  0.87438066  0.33983872  1
  N  N69  1  0.77884581  0.76076606  0.08944980  1
  N  N70  1  0.54578585  0.86248323  0.84502663  1
  N  N71  1  0.43845445  0.75485108  0.65903341  1
