# generated using pymatgen
data_Al17BN18
_symmetry_space_group_name_H-M   'P 1'
_cell_length_a   9.29957464
_cell_length_b   9.29957448
_cell_length_c   9.93923183
_cell_angle_alpha   89.99401737
_cell_angle_beta   89.99402623
_cell_angle_gamma   60.00207523
_symmetry_Int_Tables_number   1
_chemical_formula_structural   Al17BN18
_chemical_formula_sum   'Al34 B2 N36'
_cell_volume   744.42112998
_cell_formula_units_Z   2
loop_
 _symmetry_equiv_pos_site_id
 _symmetry_equiv_pos_as_xyz
  1  'x, y, z'
loop_
 _atom_site_type_symbol
 _atom_site_label
 _atom_site_symmetry_multiplicity
 _atom_site_fract_x
 _atom_site_fract_y
 _atom_site_fract_z
 _atom_site_occupancy
  Al  Al0  1  0.10952765  0.09400418  0.30205334  1
  Al  Al1  1  0.22133631  0.20454427  0.04550497  1
  Al  Al2  1  0.78054718  0.09721289  0.79022654  1
  Al  Al3  1  0.44502806  0.09303619  0.29533652  1
  Al  Al4  1  0.55756451  0.20471699  0.04519210  1
  Al  Al5  1  0.11032017  0.09407296  0.79093671  1
  Al  Al6  1  0.21705501  0.20704626  0.54462692  1
  Al  Al7  1  0.77906420  0.09573004  0.30169901  1
  Al  Al8  1  0.88883481  0.20550171  0.04703060  1
  Al  Al9  1  0.44283398  0.09076796  0.79487644  1
  Al  Al10  1  0.55863917  0.20737991  0.54506829  1
  Al  Al11  1  0.11110164  0.42776792  0.29458459  1
  Al  Al12  1  0.22238268  0.53904929  0.04519667  1
  Al  Al13  1  0.77740654  0.42698609  0.79093646  1
  Al  Al14  1  0.89037923  0.53372156  0.54462678  1
  Al  Al15  1  0.44532942  0.42878953  0.29482477  1
  Al  Al16  1  0.55463560  0.54336121  0.04110611  1
  Al  Al17  1  0.11101121  0.42767686  0.79496939  1
  Al  Al18  1  0.22219848  0.53886602  0.54424259  1
  Al  Al19  1  0.77733738  0.42619432  0.30205348  1
  Al  Al20  1  0.88787767  0.53800325  0.04550496  1
  Al  Al21  1  0.44304889  0.43287062  0.79509757  1
  Al  Al22  1  0.55803408  0.53597859  0.55137477  1
  Al  Al23  1  0.11212279  0.76199636  0.29482489  1
  Al  Al24  1  0.22669505  0.87130147  0.04110604  1
  Al  Al25  1  0.77410154  0.75949990  0.79487650  1
  Al  Al26  1  0.89071207  0.87530686  0.54506828  1
  Al  Al27  1  0.44430821  0.76097550  0.29692232  1
  Al  Al28  1  0.55274128  0.86940786  0.04074403  1
  Al  Al29  1  0.11620348  0.75971563  0.79509742  1
  Al  Al30  1  0.21931110  0.87470169  0.55137494  1
  Al  Al31  1  0.77636876  0.76169528  0.29533650  1
  Al  Al32  1  0.88805036  0.87423123  0.04519217  1
  Al  Al33  1  0.55433684  0.87100297  0.55064415  1
  B  B34  1  0.88892936  0.20559624  0.54185552  1
  B  B35  1  0.44500082  0.76166729  0.79058598  1
  N  N36  1  0.22242429  0.20564949  0.35404093  1
  N  N37  1  0.11053037  0.09295176  0.10790366  1
  N  N38  1  0.88921512  0.20588114  0.85766198  1
  N  N39  1  0.79030183  0.10696904  0.59656646  1
  N  N40  1  0.55464287  0.20624156  0.35418275  1
  N  N41  1  0.44558894  0.09239157  0.10213964  1
  N  N42  1  0.22072760  0.20487279  0.85345527  1
  N  N43  1  0.08597052  0.10722845  0.59782367  1
  N  N44  1  0.88906320  0.20572971  0.37570060  1
  N  N45  1  0.77866817  0.09533473  0.10922535  1
  N  N46  1  0.55735796  0.20456261  0.85226362  1
  N  N47  1  0.44362190  0.09554223  0.60415113  1
  N  N48  1  0.22244339  0.53911018  0.35278201  1
  N  N49  1  0.11094162  0.42760811  0.10363556  1
  N  N50  1  0.88820676  0.53739338  0.85345519  1
  N  N51  1  0.79056126  0.40263732  0.59782342  1
  N  N52  1  0.55419176  0.54073593  0.35969330  1
  N  N53  1  0.44614779  0.42867531  0.10207468  1
  N  N54  1  0.22191866  0.53858525  0.85494217  1
  N  N55  1  0.11135094  0.42801781  0.60422813  1
  N  N56  1  0.88898280  0.53909105  0.35404072  1
  N  N57  1  0.77628549  0.42719693  0.10790382  1
  N  N58  1  0.54540223  0.56279690  0.84542822  1
  N  N59  1  0.44328686  0.42798797  0.60522205  1
  N  N60  1  0.22406894  0.87085877  0.35969343  1
  N  N61  1  0.11200872  0.76281429  0.10207476  1
  N  N62  1  0.88789600  0.87402406  0.85226379  1
  N  N63  1  0.77887577  0.76028825  0.60415122  1
  N  N64  1  0.55473046  0.87139758  0.35840963  1
  N  N65  1  0.44420175  0.76086803  0.10754400  1
  N  N66  1  0.24613043  0.86206852  0.84542815  1
  N  N67  1  0.11132042  0.75995437  0.60522194  1
  N  N68  1  0.88957493  0.87130921  0.35418283  1
  N  N69  1  0.77572490  0.76225573  0.10213966  1
  N  N70  1  0.54296677  0.85963309  0.84674525  1
  N  N71  1  0.44429304  0.76095996  0.62510267  1
