# generated using pymatgen
data_Al17BN18
_symmetry_space_group_name_H-M   'P 1'
_cell_length_a   9.32717094
_cell_length_b   9.32716883
_cell_length_c   10.08146658
_cell_angle_alpha   90.16963832
_cell_angle_beta   90.16926268
_cell_angle_gamma   60.29716928
_symmetry_Int_Tables_number   1
_chemical_formula_structural   Al17BN18
_chemical_formula_sum   'Al34 B2 N36'
_cell_volume   761.80582943
_cell_formula_units_Z   2
loop_
 _symmetry_equiv_pos_site_id
 _symmetry_equiv_pos_as_xyz
  1  'x, y, z'
loop_
 _atom_site_type_symbol
 _atom_site_label
 _atom_site_symmetry_multiplicity
 _atom_site_fract_x
 _atom_site_fract_y
 _atom_site_fract_z
 _atom_site_occupancy
  Al  Al0  1  0.10332166  0.10363903  0.40594850  1
  Al  Al1  1  0.22072705  0.20262050  0.14988947  1
  Al  Al2  1  0.77845139  0.09511424  0.89617258  1
  Al  Al3  1  0.44494134  0.09444768  0.40199472  1
  Al  Al4  1  0.56060860  0.20002470  0.14821930  1
  Al  Al5  1  0.11129615  0.09669086  0.88717856  1
  Al  Al6  1  0.21639449  0.20696685  0.65103662  1
  Al  Al7  1  0.78053485  0.09720088  0.40462288  1
  Al  Al8  1  0.88956149  0.20622764  0.14607145  1
  Al  Al9  1  0.44256507  0.08941617  0.90110063  1
  Al  Al10  1  0.56304739  0.19829993  0.65090132  1
  Al  Al11  1  0.11148985  0.42815440  0.39806855  1
  Al  Al12  1  0.22104639  0.53771320  0.13969884  1
  Al  Al13  1  0.78002938  0.42795871  0.88717872  1
  Al  Al14  1  0.89030338  0.53305816  0.65103660  1
  Al  Al15  1  0.45064259  0.43137823  0.33470347  1
  Al  Al16  1  0.54903796  0.54863826  0.07270696  1
  Al  Al17  1  0.11052286  0.42718570  0.90315013  1
  Al  Al18  1  0.21885753  0.53551669  0.64002603  1
  Al  Al19  1  0.78697690  0.41998521  0.40594839  1
  Al  Al20  1  0.88595529  0.53739381  0.14988978  1
  Al  Al21  1  0.44568887  0.43362583  0.83443655  1
  Al  Al22  1  0.55466432  0.53598825  0.59087700  1
  Al  Al23  1  0.11471084  0.76730972  0.33470292  1
  Al  Al24  1  0.23197368  0.86570124  0.07270718  1
  Al  Al25  1  0.77275237  0.75922914  0.90110070  1
  Al  Al26  1  0.88163846  0.87970919  0.65090128  1
  Al  Al27  1  0.44299154  0.75965520  0.33451732  1
  Al  Al28  1  0.55854259  0.87520959  0.15104526  1
  Al  Al29  1  0.11696475  0.76234931  0.83443631  1
  Al  Al30  1  0.21932509  0.87132627  0.59087690  1
  Al  Al31  1  0.77778192  0.76160718  0.40199479  1
  Al  Al32  1  0.88335585  0.87727703  0.14821973  1
  Al  Al33  1  0.55476947  0.87143285  0.65610754  1
  B  B34  1  0.88953144  0.20619425  0.65424234  1
  B  B35  1  0.44158933  0.75825242  0.82235337  1
  N  N36  1  0.22189256  0.20390196  0.34073430  1
  N  N37  1  0.10725376  0.09849252  0.08037979  1
  N  N38  1  0.88789704  0.20455982  0.81765907  1
  N  N39  1  0.78961413  0.10627619  0.59595915  1
  N  N40  1  0.56071432  0.20039108  0.34305011  1
  N  N41  1  0.44309581  0.09477025  0.09033360  1
  N  N42  1  0.22280107  0.20758749  0.83818658  1
  N  N43  1  0.08258983  0.11105702  0.60054897  1
  N  N44  1  0.88928282  0.20594614  0.33478756  1
  N  N45  1  0.77890118  0.09556844  0.08542812  1
  N  N46  1  0.55772307  0.19863095  0.84287327  1
  N  N47  1  0.44288787  0.09165768  0.59179443  1
  N  N48  1  0.22171050  0.53837773  0.34648569  1
  N  N49  1  0.10901079  0.42567583  0.09228511  1
  N  N50  1  0.89092500  0.53946449  0.83818666  1
  N  N51  1  0.79439430  0.39925308  0.60054886  1
  N  N52  1  0.55476604  0.54387936  0.40050196  1
  N  N53  1  0.45105833  0.43018054  0.13580888  1
  N  N54  1  0.22006425  0.53672548  0.85309439  1
  N  N55  1  0.10906130  0.42572402  0.58697768  1
  N  N56  1  0.88723781  0.53855777  0.34073454  1
  N  N57  1  0.78182850  0.42391910  0.08038021  1
  N  N58  1  0.54067371  0.56770444  0.88007982  1
  N  N59  1  0.44585502  0.42597863  0.63912359  1
  N  N60  1  0.22721527  0.87142886  0.40050200  1
  N  N61  1  0.11351253  0.76772523  0.13580887  1
  N  N62  1  0.88196913  0.87438539  0.84287339  1
  N  N63  1  0.77499448  0.75955127  0.59179446  1
  N  N64  1  0.55921113  0.87587624  0.34270864  1
  N  N65  1  0.44247233  0.75913786  0.14554227  1
  N  N66  1  0.25104178  0.85733558  0.88008012  1
  N  N67  1  0.10931743  0.76251517  0.63912364  1
  N  N68  1  0.88372405  0.87738076  0.34305011  1
  N  N69  1  0.77810398  0.75976209  0.09033369  1
  N  N70  1  0.54530909  0.86197252  0.84623100  1
  N  N71  1  0.43823127  0.75489484  0.66024724  1
