# generated using pymatgen
data_Al17BN18
_symmetry_space_group_name_H-M   'P 1'
_cell_length_a   9.31154801
_cell_length_b   9.32488168
_cell_length_c   10.13469308
_cell_angle_alpha   90.07237098
_cell_angle_beta   90.07650525
_cell_angle_gamma   60.14163184
_symmetry_Int_Tables_number   1
_chemical_formula_structural   Al17BN18
_chemical_formula_sum   'Al34 B2 N36'
_cell_volume   763.17477249
_cell_formula_units_Z   2
loop_
 _symmetry_equiv_pos_site_id
 _symmetry_equiv_pos_as_xyz
  1  'x, y, z'
loop_
 _atom_site_type_symbol
 _atom_site_label
 _atom_site_symmetry_multiplicity
 _atom_site_fract_x
 _atom_site_fract_y
 _atom_site_fract_z
 _atom_site_occupancy
  Al  Al0  1  0.10056669  0.10118565  0.39640538  1
  Al  Al1  1  0.22354727  0.20016443  0.13823628  1
  Al  Al2  1  0.77959269  0.09463485  0.81254814  1
  Al  Al3  1  0.43790239  0.09633768  0.38999280  1
  Al  Al4  1  0.55795607  0.20779824  0.06665601  1
  Al  Al5  1  0.11402049  0.09551583  0.87858258  1
  Al  Al6  1  0.21614814  0.20942189  0.63985846  1
  Al  Al7  1  0.77333717  0.09111041  0.31787453  1
  Al  Al8  1  0.89130551  0.20689632  0.13538127  1
  Al  Al9  1  0.44148156  0.09239117  0.87507854  1
  Al  Al10  1  0.56347974  0.21079277  0.57175046  1
  Al  Al11  1  0.10689750  0.42565049  0.38516407  1
  Al  Al12  1  0.22443577  0.54153775  0.07420593  1
  Al  Al13  1  0.77876483  0.43056492  0.87842523  1
  Al  Al14  1  0.89468141  0.52839693  0.63924369  1
  Al  Al15  1  0.44660612  0.42951624  0.31991507  1
  Al  Al16  1  0.54729093  0.54643674  0.06359272  1
  Al  Al17  1  0.10879198  0.42558536  0.89185940  1
  Al  Al18  1  0.22439570  0.54243034  0.56726348  1
  Al  Al19  1  0.78372077  0.41828171  0.39640740  1
  Al  Al20  1  0.88850555  0.53082038  0.13802986  1
  Al  Al21  1  0.44150864  0.43509043  0.81854496  1
  Al  Al22  1  0.55395562  0.53907005  0.58215232  1
  Al  Al23  1  0.11199608  0.76405019  0.32020130  1
  Al  Al24  1  0.22941508  0.86476837  0.06394727  1
  Al  Al25  1  0.77233154  0.76656374  0.81825141  1
  Al  Al26  1  0.89043768  0.87696975  0.56830422  1
  Al  Al27  1  0.44359203  0.76035691  0.32384606  1
  Al  Al28  1  0.55568806  0.86341617  0.06518290  1
  Al  Al29  1  0.11718706  0.75842847  0.81946105  1
  Al  Al30  1  0.22142161  0.87161805  0.58319045  1
  Al  Al31  1  0.77261382  0.76608002  0.32009070  1
  Al  Al32  1  0.88786547  0.87226907  0.06777384  1
  Al  Al33  1  0.55702707  0.86596786  0.57863567  1
  B  B34  1  0.89372080  0.20862199  0.64701980  1
  B  B35  1  0.44525687  0.75912098  0.81595431  1
  N  N36  1  0.22006285  0.20194781  0.32800350  1
  N  N37  1  0.10721160  0.09686883  0.06937528  1
  N  N38  1  0.89594965  0.21154550  0.80871731  1
  N  N39  1  0.78974953  0.10358683  0.62398642  1
  N  N40  1  0.55666436  0.20968026  0.38060871  1
  N  N41  1  0.44049773  0.09396875  0.07626607  1
  N  N42  1  0.22145748  0.20957134  0.82500045  1
  N  N43  1  0.08313155  0.11103649  0.58943109  1
  N  N44  1  0.89024244  0.20729309  0.32374768  1
  N  N45  1  0.77425636  0.09050771  0.12786236  1
  N  N46  1  0.56114196  0.21069281  0.87498855  1
  N  N47  1  0.44032988  0.09778197  0.58923951  1
  N  N48  1  0.22437714  0.54207786  0.37577863  1
  N  N49  1  0.10893129  0.42339529  0.08237143  1
  N  N50  1  0.89398240  0.53586285  0.82764935  1
  N  N51  1  0.79338160  0.39963498  0.58941996  1
  N  N52  1  0.55108675  0.54267860  0.38988904  1
  N  N53  1  0.44719775  0.42818360  0.13060347  1
  N  N54  1  0.22496015  0.54174588  0.88349899  1
  N  N55  1  0.10899182  0.42564389  0.57484666  1
  N  N56  1  0.88672094  0.53250504  0.32893344  1
  N  N57  1  0.77959714  0.42304276  0.06868932  1
  N  N58  1  0.53929982  0.56691739  0.86980157  1
  N  N59  1  0.44163385  0.42912872  0.63275358  1
  N  N60  1  0.22540570  0.86884721  0.39022453  1
  N  N61  1  0.11076413  0.76427536  0.13046225  1
  N  N62  1  0.88998727  0.87474609  0.87899576  1
  N  N63  1  0.77800942  0.76609880  0.62869133  1
  N  N64  1  0.55710666  0.86510620  0.38604066  1
  N  N65  1  0.44376127  0.76014240  0.13592660  1
  N  N66  1  0.25048005  0.85618405  0.86989715  1
  N  N67  1  0.11009132  0.75969027  0.63275016  1
  N  N68  1  0.88916971  0.87152790  0.38001068  1
  N  N69  1  0.77403349  0.76452391  0.12740879  1
  N  N70  1  0.54623971  0.85420922  0.87122180  1
  N  N71  1  0.44472720  0.76085162  0.65329009  1
