# generated using pymatgen
data_Al17BN18
_symmetry_space_group_name_H-M   'P 1'
_cell_length_a   9.35699161
_cell_length_b   9.35699501
_cell_length_c   10.07635315
_cell_angle_alpha   90.10928880
_cell_angle_beta   90.10775207
_cell_angle_gamma   60.12631359
_symmetry_Int_Tables_number   1
_chemical_formula_structural   Al17BN18
_chemical_formula_sum   'Al34 B2 N36'
_cell_volume   764.99215673
_cell_formula_units_Z   2
loop_
 _symmetry_equiv_pos_site_id
 _symmetry_equiv_pos_as_xyz
  1  'x, y, z'
loop_
 _atom_site_type_symbol
 _atom_site_label
 _atom_site_symmetry_multiplicity
 _atom_site_fract_x
 _atom_site_fract_y
 _atom_site_fract_z
 _atom_site_occupancy
  Al  Al0  1  0.10383485  0.10092843  0.39418453  1
  Al  Al1  1  0.22243794  0.20161124  0.13670250  1
  Al  Al2  1  0.77870524  0.09538752  0.82162898  1
  Al  Al3  1  0.43814881  0.09660425  0.39164405  1
  Al  Al4  1  0.55831578  0.20832183  0.06415314  1
  Al  Al5  1  0.11206648  0.09504422  0.87772883  1
  Al  Al6  1  0.21350074  0.21065004  0.63926079  1
  Al  Al7  1  0.77853850  0.09522303  0.35115204  1
  Al  Al8  1  0.88965348  0.20633968  0.13400990  1
  Al  Al9  1  0.43728059  0.09287566  0.87567434  1
  Al  Al10  1  0.55875837  0.21277729  0.57824093  1
  Al  Al11  1  0.10871385  0.42539834  0.38214693  1
  Al  Al12  1  0.22437248  0.54105459  0.07425168  1
  Al  Al13  1  0.77836317  0.42874950  0.87772777  1
  Al  Al14  1  0.89396397  0.53018772  0.63926001  1
  Al  Al15  1  0.44775643  0.42903450  0.31902348  1
  Al  Al16  1  0.54872725  0.54567267  0.06365445  1
  Al  Al17  1  0.10827372  0.42495784  0.89157265  1
  Al  Al18  1  0.22486936  0.54155119  0.56549606  1
  Al  Al19  1  0.78424408  0.42052073  0.39418454  1
  Al  Al20  1  0.88492716  0.53912318  0.13670265  1
  Al  Al21  1  0.43961148  0.43658020  0.81810081  1
  Al  Al22  1  0.55480534  0.53854537  0.58093759  1
  Al  Al23  1  0.11235051  0.76443897  0.31902338  1
  Al  Al24  1  0.22898911  0.86540959  0.06365464  1
  Al  Al25  1  0.77619217  0.75396500  0.87567346  1
  Al  Al26  1  0.89609381  0.87544206  0.57823983  1
  Al  Al27  1  0.44415204  0.76083648  0.32302076  1
  Al  Al28  1  0.54997789  0.86666119  0.06704433  1
  Al  Al29  1  0.11989784  0.75629282  0.81810024  1
  Al  Al30  1  0.22186096  0.87148916  0.58093631  1
  Al  Al31  1  0.77991771  0.75483514  0.39164375  1
  Al  Al32  1  0.89163849  0.87499875  0.06415358  1
  Al  Al33  1  0.55170236  0.86838976  0.58695313  1
  B  B34  1  0.89236731  0.20905069  0.64462246  1
  B  B35  1  0.44342600  0.76011012  0.81463248  1
  N  N36  1  0.22144400  0.20247805  0.32716316  1
  N  N37  1  0.10761480  0.09708381  0.06991119  1
  N  N38  1  0.89411427  0.21079611  0.80681285  1
  N  N39  1  0.78970052  0.10638526  0.61621600  1
  N  N40  1  0.55481796  0.21149661  0.38354421  1
  N  N41  1  0.43907599  0.09577663  0.07391132  1
  N  N42  1  0.21806613  0.20990142  0.82507799  1
  N  N43  1  0.08328447  0.11072069  0.58794687  1
  N  N44  1  0.89162023  0.20830376  0.32412616  1
  N  N45  1  0.77753669  0.09422220  0.10661138  1
  N  N46  1  0.55532987  0.21113348  0.86847881  1
  N  N47  1  0.43763164  0.09892975  0.58985915  1
  N  N48  1  0.22524550  0.54193033  0.37335300  1
  N  N49  1  0.10789153  0.42457381  0.08342360  1
  N  N50  1  0.89322015  0.53474918  0.82507726  1
  N  N51  1  0.79403573  0.39996937  0.58794743  1
  N  N52  1  0.55253588  0.54256905  0.38764447  1
  N  N53  1  0.44735150  0.42806875  0.12900305  1
  N  N54  1  0.22405977  0.54074409  0.88268310  1
  N  N55  1  0.10899895  0.42568206  0.57356965  1
  N  N56  1  0.88579516  0.53812798  0.32716347  1
  N  N57  1  0.78040078  0.42429863  0.06991088  1
  N  N58  1  0.53930366  0.56617360  0.86921924  1
  N  N59  1  0.44030321  0.43190922  0.63173259  1
  N  N60  1  0.22588308  0.86921995  0.38764411  1
  N  N61  1  0.11138344  0.76403562  0.12900329  1
  N  N62  1  0.89444939  0.87201425  0.86847893  1
  N  N63  1  0.78224300  0.75431758  0.58985896  1
  N  N64  1  0.55189139  0.86857704  0.38463219  1
  N  N65  1  0.44316862  0.75985440  0.13495617  1
  N  N66  1  0.24949093  0.85598468  0.86921972  1
  N  N67  1  0.11522403  0.75698802  0.63173197  1
  N  N68  1  0.89481016  0.87150388  0.38354382  1
  N  N69  1  0.77909297  0.75575915  0.07391147  1
  N  N70  1  0.53987876  0.85656192  0.86556870  1
  N  N71  1  0.44277097  0.75945684  0.65216895  1
