# generated using pymatgen
data_Al17BN18
_symmetry_space_group_name_H-M   'P 1'
_cell_length_a   9.30435730
_cell_length_b   9.30435676
_cell_length_c   10.14015765
_cell_angle_alpha   90.04875860
_cell_angle_beta   90.04878955
_cell_angle_gamma   60.17780330
_symmetry_Int_Tables_number   1
_chemical_formula_structural   Al17BN18
_chemical_formula_sum   'Al34 B2 N36'
_cell_volume   761.59342748
_cell_formula_units_Z   2
loop_
 _symmetry_equiv_pos_site_id
 _symmetry_equiv_pos_as_xyz
  1  'x, y, z'
loop_
 _atom_site_type_symbol
 _atom_site_label
 _atom_site_symmetry_multiplicity
 _atom_site_fract_x
 _atom_site_fract_y
 _atom_site_fract_z
 _atom_site_occupancy
  Al  Al0  1  0.10331374  0.10255410  0.40101107  1
  Al  Al1  1  0.22074024  0.20298592  0.14448659  1
  Al  Al2  1  0.77832529  0.09498831  0.89075039  1
  Al  Al3  1  0.44522205  0.09448572  0.39693730  1
  Al  Al4  1  0.55962939  0.20113530  0.14407453  1
  Al  Al5  1  0.11120112  0.09565688  0.88175530  1
  Al  Al6  1  0.21617986  0.20816818  0.64560787  1
  Al  Al7  1  0.78029951  0.09696208  0.39929576  1
  Al  Al8  1  0.88951312  0.20617684  0.14085735  1
  Al  Al9  1  0.44298479  0.08953719  0.89599136  1
  Al  Al10  1  0.56167483  0.19962333  0.64625277  1
  Al  Al11  1  0.10835755  0.42502050  0.39092315  1
  Al  Al12  1  0.22535220  0.54201455  0.07871256  1
  Al  Al13  1  0.77899595  0.42786292  0.88175538  1
  Al  Al14  1  0.89150488  0.53284335  0.64560782  1
  Al  Al15  1  0.44572081  0.43468123  0.32678116  1
  Al  Al16  1  0.54898925  0.54856513  0.06792983  1
  Al  Al17  1  0.10794057  0.42460386  0.89728194  1
  Al  Al18  1  0.22431414  0.54097753  0.57339593  1
  Al  Al19  1  0.78589290  0.41997583  0.40101125  1
  Al  Al20  1  0.88632301  0.53740487  0.14448700  1
  Al  Al21  1  0.43932450  0.43735351  0.82563358  1
  Al  Al22  1  0.55447214  0.53584981  0.58627827  1
  Al  Al23  1  0.11801926  0.76238306  0.32678066  1
  Al  Al24  1  0.23190256  0.86565025  0.06792970  1
  Al  Al25  1  0.77287345  0.75964827  0.89599171  1
  Al  Al26  1  0.88295747  0.87833946  0.64625293  1
  Al  Al27  1  0.44303027  0.75969257  0.32937729  1
  Al  Al28  1  0.55901839  0.87568339  0.14608144  1
  Al  Al29  1  0.12068949  0.75598717  0.82563320  1
  Al  Al30  1  0.21918600  0.87113437  0.58627856  1
  Al  Al31  1  0.77782206  0.76188625  0.39693714  1
  Al  Al32  1  0.88447069  0.87629421  0.14407485  1
  Al  Al33  1  0.55501457  0.87167814  0.65144452  1
  B  B34  1  0.88954369  0.20620671  0.64844840  1
  B  B35  1  0.44127288  0.75793576  0.81773121  1
  N  N36  1  0.22237186  0.20246873  0.33415486  1
  N  N37  1  0.10733526  0.09835080  0.07439086  1
  N  N38  1  0.88781112  0.20447343  0.81175922  1
  N  N39  1  0.78942322  0.10608756  0.59025898  1
  N  N40  1  0.55974454  0.20157974  0.33730595  1
  N  N41  1  0.44330401  0.09543084  0.08424835  1
  N  N42  1  0.22305584  0.20716106  0.83193022  1
  N  N43  1  0.08266862  0.11065770  0.59503860  1
  N  N44  1  0.88922012  0.20588265  0.32903057  1
  N  N45  1  0.77879467  0.09545923  0.07976743  1
  N  N46  1  0.55665560  0.20013916  0.83692447  1
  N  N47  1  0.44299395  0.09204445  0.58581180  1
  N  N48  1  0.22529500  0.54195748  0.38350168  1
  N  N49  1  0.10825534  0.42491857  0.08854454  1
  N  N50  1  0.89049793  0.53971956  0.83193015  1
  N  N51  1  0.79399525  0.39933165  0.59503879  1
  N  N52  1  0.55355080  0.54351536  0.39622454  1
  N  N53  1  0.44618404  0.43404166  0.13559906  1
  N  N54  1  0.22413993  0.54080276  0.88956583  1
  N  N55  1  0.10804348  0.42470684  0.58135348  1
  N  N56  1  0.88580567  0.53903574  0.33415508  1
  N  N57  1  0.78168919  0.42399859  0.07439096  1
  N  N58  1  0.53968279  0.56713298  0.87526414  1
  N  N59  1  0.43974374  0.43007920  0.63737912  1
  N  N60  1  0.22685320  0.87021245  0.39622471  1
  N  N61  1  0.11737766  0.76284678  0.13559873  1
  N  N62  1  0.88347524  0.87331896  0.83692458  1
  N  N63  1  0.77538028  0.75965755  0.58581162  1
  N  N64  1  0.55941043  0.87607427  0.33671040  1
  N  N65  1  0.44285460  0.75951741  0.14085282  1
  N  N66  1  0.25047021  0.85634444  0.87526395  1
  N  N67  1  0.11341376  0.75640747  0.63737886  1
  N  N68  1  0.88491743  0.87640746  0.33730606  1
  N  N69  1  0.77876626  0.75996873  0.08424870  1
  N  N70  1  0.54542883  0.86209249  0.84068176  1
  N  N71  1  0.43840838  0.75507191  0.65594222  1
