# generated using pymatgen
data_Al17BN18
_symmetry_space_group_name_H-M   'P 1'
_cell_length_a   9.30435531
_cell_length_b   9.30435480
_cell_length_c   10.14015957
_cell_angle_alpha   90.04878424
_cell_angle_beta   90.04880675
_cell_angle_gamma   60.17779853
_symmetry_Int_Tables_number   1
_chemical_formula_structural   Al17BN18
_chemical_formula_sum   'Al34 B2 N36'
_cell_volume   761.59321134
_cell_formula_units_Z   2
loop_
 _symmetry_equiv_pos_site_id
 _symmetry_equiv_pos_as_xyz
  1  'x, y, z'
loop_
 _atom_site_type_symbol
 _atom_site_label
 _atom_site_symmetry_multiplicity
 _atom_site_fract_x
 _atom_site_fract_y
 _atom_site_fract_z
 _atom_site_occupancy
  Al  Al0  1  0.10331502  0.10255433  0.39683439  1
  Al  Al1  1  0.22074208  0.20298619  0.14031206  1
  Al  Al2  1  0.77832695  0.09498931  0.88657495  1
  Al  Al3  1  0.44522307  0.09448674  0.39276602  1
  Al  Al4  1  0.55963095  0.20113663  0.13990006  1
  Al  Al5  1  0.11120263  0.09565755  0.87757972  1
  Al  Al6  1  0.21618072  0.20816979  0.64143399  1
  Al  Al7  1  0.78030072  0.09696260  0.39511850  1
  Al  Al8  1  0.88951463  0.20617771  0.13668003  1
  Al  Al9  1  0.44298652  0.08953680  0.89181941  1
  Al  Al10  1  0.56167646  0.19962435  0.64208115  1
  Al  Al11  1  0.10835834  0.42502061  0.38674534  1
  Al  Al12  1  0.22535410  0.54201577  0.07453876  1
  Al  Al13  1  0.77899728  0.42786378  0.87757984  1
  Al  Al14  1  0.89150720  0.53284350  0.64143399  1
  Al  Al15  1  0.44572262  0.43468106  0.32260810  1
  Al  Al16  1  0.54899099  0.54856635  0.06375496  1
  Al  Al17  1  0.10794196  0.42460455  0.89310937  1
  Al  Al18  1  0.22431536  0.54097808  0.56921795  1
  Al  Al19  1  0.78589385  0.41997640  0.39683461  1
  Al  Al20  1  0.88632398  0.53740602  0.14031242  1
  Al  Al21  1  0.43932528  0.43735485  0.82146082  1
  Al  Al22  1  0.55447358  0.53585013  0.58210338  1
  Al  Al23  1  0.11801978  0.76238420  0.32260758  1
  Al  Al24  1  0.23190446  0.86565135  0.06375479  1
  Al  Al25  1  0.77287371  0.75964936  0.89181977  1
  Al  Al26  1  0.88295921  0.87834040  0.64208129  1
  Al  Al27  1  0.44303086  0.75969242  0.32520045  1
  Al  Al28  1  0.55902076  0.87568502  0.14191192  1
  Al  Al29  1  0.12069153  0.75598724  0.82146047  1
  Al  Al30  1  0.21918703  0.87113512  0.58210366  1
  Al  Al31  1  0.77782383  0.76188652  0.39276585  1
  Al  Al32  1  0.88447272  0.87629511  0.13990038  1
  Al  Al33  1  0.55501605  0.87167888  0.64726783  1
  B  B34  1  0.88954497  0.20620731  0.64427142  1
  B  B35  1  0.44127472  0.75793692  0.81355494  1
  N  N36  1  0.22237396  0.20246826  0.32997910  1
  N  N37  1  0.10733713  0.09835175  0.07021401  1
  N  N38  1  0.88781256  0.20447422  0.80758229  1
  N  N39  1  0.78942442  0.10608806  0.58608232  1
  N  N40  1  0.55974529  0.20158000  0.33313056  1
  N  N41  1  0.44330612  0.09543099  0.08007493  1
  N  N42  1  0.22305747  0.20716221  0.82775573  1
  N  N43  1  0.08267016  0.11065843  0.59086181  1
  N  N44  1  0.88922139  0.20588321  0.32485228  1
  N  N45  1  0.77879607  0.09545996  0.07559101  1
  N  N46  1  0.55665647  0.20014040  0.83275108  1
  N  N47  1  0.44299521  0.09204625  0.58163810  1
  N  N48  1  0.22529592  0.54195775  0.37932383  1
  N  N49  1  0.10825710  0.42491962  0.08437054  1
  N  N50  1  0.89049978  0.53972052  0.82775569  1
  N  N51  1  0.79399667  0.39933250  0.59086201  1
  N  N52  1  0.55355156  0.54351606  0.39204878  1
  N  N53  1  0.44618609  0.43404302  0.13142441  1
  N  N54  1  0.22414134  0.54080349  0.88539215  1
  N  N55  1  0.10804471  0.42470738  0.57717548  1
  N  N56  1  0.88580592  0.53903711  0.32997930  1
  N  N57  1  0.78169079  0.42399980  0.07021413  1
  N  N58  1  0.53968415  0.56713423  0.87108800  1
  N  N59  1  0.43974422  0.43008037  0.63320448  1
  N  N60  1  0.22685462  0.87021250  0.39204895  1
  N  N61  1  0.11737971  0.76284818  0.13142405  1
  N  N62  1  0.88347717  0.87331917  0.83275118  1
  N  N63  1  0.77538283  0.75965808  0.58163793  1
  N  N64  1  0.55941112  0.87607420  0.33253865  1
  N  N65  1  0.44285685  0.75951901  0.13667631  1
  N  N66  1  0.25047214  0.85634512  0.87108780  1
  N  N67  1  0.11341566  0.75640727  0.63320423  1
  N  N68  1  0.88491839  0.87640752  0.33313066  1
  N  N69  1  0.77876713  0.75997015  0.08007526  1
  N  N70  1  0.54543034  0.86209330  0.83650502  1
  N  N71  1  0.43840988  0.75507270  0.65176531  1
