# generated using pymatgen
data_Al17BN18
_symmetry_space_group_name_H-M   'P 1'
_cell_length_a   9.30435533
_cell_length_b   9.30435560
_cell_length_c   10.14016217
_cell_angle_alpha   90.04877612
_cell_angle_beta   90.04877290
_cell_angle_gamma   60.17780610
_symmetry_Int_Tables_number   1
_chemical_formula_structural   Al17BN18
_chemical_formula_sum   'Al34 B2 N36'
_cell_volume   761.59353245
_cell_formula_units_Z   2
loop_
 _symmetry_equiv_pos_site_id
 _symmetry_equiv_pos_as_xyz
  1  'x, y, z'
loop_
 _atom_site_type_symbol
 _atom_site_label
 _atom_site_symmetry_multiplicity
 _atom_site_fract_x
 _atom_site_fract_y
 _atom_site_fract_z
 _atom_site_occupancy
  Al  Al0  1  0.10139025  0.10099650  0.38682803  1
  Al  Al1  1  0.21527419  0.20426401  0.12797732  1
  Al  Al2  1  0.77827730  0.09497012  0.80331256  1
  Al  Al3  1  0.44882158  0.09035452  0.31068268  1
  Al  Al4  1  0.55547105  0.20476279  0.05782037  1
  Al  Al5  1  0.11410607  0.09551338  0.86848254  1
  Al  Al6  1  0.21260239  0.21066188  0.62912435  1
  Al  Al7  1  0.77427160  0.09096446  0.30867604  1
  Al  Al8  1  0.89026276  0.20695466  0.12538432  1
  Al  Al9  1  0.45033316  0.08831042  0.80850581  1
  Al  Al10  1  0.56041834  0.20700141  0.55876490  1
  Al  Al11  1  0.10794159  0.42463287  0.37604792  1
  Al  Al12  1  0.22493596  0.54162610  0.06383646  1
  Al  Al13  1  0.77882333  0.43079806  0.86848204  1
  Al  Al14  1  0.89396918  0.52929728  0.62912431  1
  Al  Al15  1  0.44697020  0.42924506  0.31027021  1
  Al  Al16  1  0.54740212  0.54667244  0.05374743  1
  Al  Al17  1  0.10897879  0.42567015  0.88136250  1
  Al  Al18  1  0.22535364  0.54204570  0.55747659  1
  Al  Al19  1  0.78430417  0.41808235  0.38682823  1
  Al  Al20  1  0.88757354  0.53196559  0.12797729  1
  Al  Al21  1  0.44178853  0.43380575  0.80914952  1
  Al  Al22  1  0.55430044  0.53878512  0.57300555  1
  Al  Al23  1  0.11255260  0.76366225  0.31027029  1
  Al  Al24  1  0.22998126  0.86409156  0.05374746  1
  Al  Al25  1  0.77161802  0.76702697  0.80850623  1
  Al  Al26  1  0.89030785  0.87711267  0.55876464  1
  Al  Al27  1  0.44377952  0.76047204  0.31390492  1
  Al  Al28  1  0.55299408  0.86968588  0.05546492  1
  Al  Al29  1  0.11711333  0.75847999  0.80914926  1
  Al  Al30  1  0.22209316  0.87099173  0.57300529  1
  Al  Al31  1  0.77366310  0.76551229  0.31068278  1
  Al  Al32  1  0.88807109  0.87216239  0.05782071  1
  Al  Al33  1  0.55496860  0.87166107  0.56401074  1
  B  B34  1  0.89202071  0.20871334  0.63702763  1
  B  B35  1  0.44375050  0.76044219  0.80631161  1
  N  N36  1  0.21591430  0.20380123  0.31915967  1
  N  N37  1  0.10643986  0.09643404  0.05853616  1
  N  N38  1  0.89488426  0.21157626  0.79881733  1
  N  N39  1  0.78786347  0.10455725  0.61407601  1
  N  N40  1  0.55452464  0.20668102  0.37050906  1
  N  N41  1  0.44837581  0.09024120  0.11745267  1
  N  N42  1  0.21987685  0.21024083  0.81737983  1
  N  N43  1  0.08282274  0.11030440  0.57949461  1
  N  N44  1  0.89043703  0.20712938  0.31390805  1
  N  N45  1  0.77388219  0.09057387  0.11804855  1
  N  N46  1  0.55791185  0.20699140  0.86894692  1
  N  N47  1  0.44981667  0.09333117  0.61783499  1
  N  N48  1  0.22503763  0.54172965  0.36621406  1
  N  N49  1  0.10799856  0.42468914  0.07125718  1
  N  N50  1  0.89354922  0.53657048  0.81737982  1
  N  N51  1  0.79361260  0.39951580  0.57949495  1
  N  N52  1  0.55160452  0.54264962  0.38036972  1
  N  N53  1  0.44748820  0.42761302  0.12060316  1
  N  N54  1  0.22524949  0.54194101  0.87340553  1
  N  N55  1  0.10915402  0.42584662  0.56519405  1
  N  N56  1  0.88711001  0.53260530  0.31915960  1
  N  N57  1  0.77974415  0.42313119  0.05853567  1
  N  N58  1  0.53929964  0.56731656  0.85972076  1
  N  N59  1  0.44279601  0.42692996  0.62282822  1
  N  N60  1  0.22595711  0.86829683  0.38036952  1
  N  N61  1  0.11092141  0.76417855  0.12060322  1
  N  N62  1  0.89029927  0.87460476  0.86894721  1
  N  N63  1  0.77663810  0.76651101  0.61783539  1
  N  N64  1  0.55449843  0.87119006  0.37499342  1
  N  N65  1  0.44407379  0.76076510  0.12573124  1
  N  N66  1  0.25062495  0.85599018  0.85972078  1
  N  N67  1  0.11023684  0.75948846  0.62282793  1
  N  N68  1  0.88998827  0.87121722  0.37050883  1
  N  N69  1  0.77354956  0.76506713  0.11745268  1
  N  N70  1  0.54386945  0.86056192  0.86450147  1
  N  N71  1  0.44548326  0.76217534  0.64300121  1
