# generated using pymatgen
data_Al17BN18
_symmetry_space_group_name_H-M   'P 1'
_cell_length_a   9.31269767
_cell_length_b   9.32413141
_cell_length_c   10.14320462
_cell_angle_alpha   90.09731411
_cell_angle_beta   90.02783303
_cell_angle_gamma   60.15844864
_symmetry_Int_Tables_number   1
_chemical_formula_structural   Al17BN18
_chemical_formula_sum   'Al34 B2 N36'
_cell_volume   763.97692558
_cell_formula_units_Z   2
loop_
 _symmetry_equiv_pos_site_id
 _symmetry_equiv_pos_as_xyz
  1  'x, y, z'
loop_
 _atom_site_type_symbol
 _atom_site_label
 _atom_site_symmetry_multiplicity
 _atom_site_fract_x
 _atom_site_fract_y
 _atom_site_fract_z
 _atom_site_occupancy
  Al  Al0  1  0.10394990  0.10176195  0.39269843  1
  Al  Al1  1  0.22086096  0.20314236  0.13638721  1
  Al  Al2  1  0.77750254  0.09957488  0.87563628  1
  Al  Al3  1  0.44508301  0.09483965  0.38936822  1
  Al  Al4  1  0.55938319  0.20262902  0.13065687  1
  Al  Al5  1  0.11193578  0.09481928  0.87374598  1
  Al  Al6  1  0.21575960  0.20814421  0.63721236  1
  Al  Al7  1  0.77668013  0.10450182  0.39105762  1
  Al  Al8  1  0.88925222  0.20683174  0.13248833  1
  Al  Al9  1  0.44241831  0.08893038  0.88669470  1
  Al  Al10  1  0.56131854  0.19968147  0.63712092  1
  Al  Al11  1  0.10892869  0.42515679  0.38230714  1
  Al  Al12  1  0.22514169  0.54242357  0.07140332  1
  Al  Al13  1  0.77942938  0.42727542  0.87457896  1
  Al  Al14  1  0.89201263  0.53140133  0.63789651  1
  Al  Al15  1  0.44497662  0.43514889  0.31802326  1
  Al  Al16  1  0.54916983  0.54963459  0.06000769  1
  Al  Al17  1  0.10888876  0.42423368  0.88947004  1
  Al  Al18  1  0.22507011  0.54064874  0.56440393  1
  Al  Al19  1  0.78606861  0.42020617  0.39277548  1
  Al  Al20  1  0.88626661  0.53780082  0.13676852  1
  Al  Al21  1  0.43879510  0.43782018  0.81726738  1
  Al  Al22  1  0.55478946  0.53565013  0.57769798  1
  Al  Al23  1  0.10963976  0.76665987  0.31821487  1
  Al  Al24  1  0.23216709  0.86596396  0.06043552  1
  Al  Al25  1  0.76992100  0.75516404  0.88544114  1
  Al  Al26  1  0.89376741  0.87288787  0.57606405  1
  Al  Al27  1  0.44173896  0.75988591  0.32111747  1
  Al  Al28  1  0.55942318  0.87677734  0.13889974  1
  Al  Al29  1  0.11720535  0.75675913  0.81612739  1
  Al  Al30  1  0.21973303  0.87083673  0.57815526  1
  Al  Al31  1  0.77452609  0.75858089  0.38941021  1
  Al  Al32  1  0.89555862  0.87081598  0.06428352  1
  Al  Al33  1  0.55460633  0.87080046  0.64406654  1
  B  B34  1  0.88881245  0.20693037  0.64035296  1
  B  B35  1  0.43979655  0.75721698  0.80960193  1
  N  N36  1  0.22249036  0.20237170  0.32605017  1
  N  N37  1  0.10755551  0.09830022  0.06637961  1
  N  N38  1  0.88931067  0.20562167  0.80281020  1
  N  N39  1  0.78817201  0.11145033  0.58557581  1
  N  N40  1  0.55848833  0.20295230  0.33010280  1
  N  N41  1  0.44309487  0.09554499  0.07496979  1
  N  N42  1  0.22264092  0.20705588  0.82362823  1
  N  N43  1  0.08308308  0.11019355  0.58646229  1
  N  N44  1  0.88977188  0.20640707  0.32037456  1
  N  N45  1  0.77632364  0.10245315  0.06869863  1
  N  N46  1  0.55559169  0.20011341  0.82787020  1
  N  N47  1  0.44311864  0.09101762  0.57830879  1
  N  N48  1  0.22431772  0.54346197  0.37391468  1
  N  N49  1  0.10848514  0.42515201  0.08086031  1
  N  N50  1  0.89179861  0.53718399  0.82375866  1
  N  N51  1  0.79427024  0.39941779  0.58638663  1
  N  N52  1  0.55371468  0.54355038  0.38745582  1
  N  N53  1  0.44557231  0.43552612  0.12694058  1
  N  N54  1  0.22441030  0.54092064  0.88179068  1
  N  N55  1  0.10870459  0.42462297  0.57289203  1
  N  N56  1  0.88624729  0.53836984  0.32580095  1
  N  N57  1  0.78174676  0.42468936  0.06680831  1
  N  N58  1  0.53998481  0.56673392  0.86729336  1
  N  N59  1  0.43955377  0.43048504  0.62900470  1
  N  N60  1  0.22602696  0.86966252  0.38744946  1
  N  N61  1  0.11212798  0.76585937  0.12906097  1
  N  N62  1  0.89463203  0.86728779  0.86979057  1
  N  N63  1  0.77263910  0.75533679  0.58083460  1
  N  N64  1  0.55847694  0.87677019  0.32865783  1
  N  N65  1  0.44240428  0.76043883  0.13293600  1
  N  N66  1  0.25015587  0.85526716  0.86730553  1
  N  N67  1  0.11183116  0.75683639  0.63122016  1
  N  N68  1  0.89290862  0.87269492  0.38146206  1
  N  N69  1  0.77617862  0.75768775  0.07651290  1
  N  N70  1  0.54413782  0.86201513  0.83240258  1
  N  N71  1  0.43759385  0.75435391  0.64802543  1
