# generated using pymatgen
data_Al17BN18
_symmetry_space_group_name_H-M   'P 1'
_cell_length_a   9.32076627
_cell_length_b   9.32076050
_cell_length_c   10.08639419
_cell_angle_alpha   90.13596539
_cell_angle_beta   90.13715650
_cell_angle_gamma   60.23818965
_symmetry_Int_Tables_number   1
_chemical_formula_structural   Al17BN18
_chemical_formula_sum   'Al34 B2 N36'
_cell_volume   760.68572344
_cell_formula_units_Z   2
loop_
 _symmetry_equiv_pos_site_id
 _symmetry_equiv_pos_as_xyz
  1  'x, y, z'
loop_
 _atom_site_type_symbol
 _atom_site_label
 _atom_site_symmetry_multiplicity
 _atom_site_fract_x
 _atom_site_fract_y
 _atom_site_fract_z
 _atom_site_occupancy
  Al  Al0  1  0.10330266  0.10283843  0.40628235  1
  Al  Al1  1  0.22073209  0.20257655  0.15021015  1
  Al  Al2  1  0.77840794  0.09506940  0.89618572  1
  Al  Al3  1  0.44520399  0.09435184  0.40225428  1
  Al  Al4  1  0.56001530  0.20054840  0.14917590  1
  Al  Al5  1  0.11132672  0.09597099  0.88704806  1
  Al  Al6  1  0.21628531  0.20782082  0.65120830  1
  Al  Al7  1  0.78043680  0.09709992  0.40472389  1
  Al  Al8  1  0.88953238  0.20619667  0.14622176  1
  Al  Al9  1  0.44291804  0.08942778  0.90129208  1
  Al  Al10  1  0.56208939  0.19923104  0.65161130  1
  Al  Al11  1  0.10897706  0.42564000  0.39628059  1
  Al  Al12  1  0.22462737  0.54129390  0.09041498  1
  Al  Al13  1  0.77930885  0.42798915  0.88704926  1
  Al  Al14  1  0.89115809  0.53294822  0.65120841  1
  Al  Al15  1  0.44672873  0.43376317  0.33310925  1
  Al  Al16  1  0.54918939  0.54849443  0.07328837  1
  Al  Al17  1  0.10862301  0.42528541  0.90294795  1
  Al  Al18  1  0.22364024  0.54030503  0.58453865  1
  Al  Al19  1  0.78617601  0.41996571  0.40628255  1
  Al  Al20  1  0.88591280  0.53739768  0.15021071  1
  Al  Al21  1  0.44013078  0.43666357  0.83272652  1
  Al  Al22  1  0.55484440  0.53572106  0.59190532  1
  Al  Al23  1  0.11710028  0.76339182  0.33310885  1
  Al  Al24  1  0.23182962  0.86585184  0.07328866  1
  Al  Al25  1  0.77276501  0.75958126  0.90129234  1
  Al  Al26  1  0.88256551  0.87875366  0.65161155  1
  Al  Al27  1  0.44289920  0.75956388  0.33504442  1
  Al  Al28  1  0.55864502  0.87531096  0.15119140  1
  Al  Al29  1  0.12000201  0.75679290  0.83272632  1
  Al  Al30  1  0.21905730  0.87150632  0.59190591  1
  Al  Al31  1  0.77768786  0.76186866  0.40225423  1
  Al  Al32  1  0.88387948  0.87668326  0.14917654  1
  Al  Al33  1  0.55489505  0.87155815  0.65628873  1
  B  B34  1  0.88954631  0.20621030  0.65449991  1
  B  B35  1  0.44141872  0.75808081  0.82273518  1
  N  N36  1  0.22231477  0.20275293  0.34053530  1
  N  N37  1  0.10724107  0.09815342  0.08038457  1
  N  N38  1  0.88790012  0.20456369  0.81781241  1
  N  N39  1  0.78950883  0.10617417  0.59624677  1
  N  N40  1  0.56006405  0.20115997  0.34334480  1
  N  N41  1  0.44313187  0.09506454  0.09034440  1
  N  N42  1  0.22302114  0.20747513  0.83821580  1
  N  N43  1  0.08258605  0.11072667  0.60099377  1
  N  N44  1  0.88927756  0.20594276  0.33489100  1
  N  N45  1  0.77880414  0.09547278  0.08567216  1
  N  N46  1  0.55694647  0.19980656  0.84307568  1
  N  N47  1  0.44292084  0.09195888  0.59188127  1
  N  N48  1  0.22491477  0.54157687  0.38512535  1
  N  N49  1  0.10792295  0.42458899  0.09511586  1
  N  N50  1  0.89081064  0.53968583  0.83821588  1
  N  N51  1  0.79406508  0.39924887  0.60099362  1
  N  N52  1  0.55424593  0.54341707  0.40110828  1
  N  N53  1  0.44770822  0.43271504  0.14014930  1
  N  N54  1  0.22396716  0.54062810  0.89349319  1
  N  N55  1  0.10798517  0.42465021  0.58784694  1
  N  N56  1  0.88608800  0.53898072  0.34053552  1
  N  N57  1  0.78149069  0.42390635  0.08038505  1
  N  N58  1  0.54027195  0.56729211  0.88009615  1
  N  N59  1  0.44111212  0.42909172  0.64254226  1
  N  N60  1  0.22675404  0.87090889  0.40110817  1
  N  N61  1  0.11604651  0.76437416  0.14014857  1
  N  N62  1  0.88314534  0.87360893  0.84307621  1
  N  N63  1  0.77529367  0.75958549  0.59188130  1
  N  N64  1  0.55917531  0.87584122  0.34276339  1
  N  N65  1  0.44262067  0.75928365  0.14579998  1
  N  N66  1  0.25062944  0.85693498  0.88009586  1
  N  N67  1  0.11242585  0.75777574  0.64254197  1
  N  N68  1  0.88449693  0.87672838  0.34334515  1
  N  N69  1  0.77839705  0.75979925  0.09034479  1
  N  N70  1  0.54537354  0.86203754  0.84637852  1
  N  N71  1  0.43841702  0.75507956  0.66051089  1
