# generated using pymatgen
data_Al17BN18
_symmetry_space_group_name_H-M   'P 1'
_cell_length_a   9.31544041
_cell_length_b   9.32643622
_cell_length_c   10.11703033
_cell_angle_alpha   90.06523771
_cell_angle_beta   90.08859341
_cell_angle_gamma   60.14733213
_symmetry_Int_Tables_number   1
_chemical_formula_structural   Al17BN18
_chemical_formula_sum   'Al34 B2 N36'
_cell_volume   762.33365000
_cell_formula_units_Z   2
loop_
 _symmetry_equiv_pos_site_id
 _symmetry_equiv_pos_as_xyz
  1  'x, y, z'
loop_
 _atom_site_type_symbol
 _atom_site_label
 _atom_site_symmetry_multiplicity
 _atom_site_fract_x
 _atom_site_fract_y
 _atom_site_fract_z
 _atom_site_occupancy
  Al  Al0  1  0.10008409  0.10110556  0.39664512  1
  Al  Al1  1  0.22291129  0.20050433  0.13806524  1
  Al  Al2  1  0.77998813  0.09454763  0.81285719  1
  Al  Al3  1  0.43943793  0.09549014  0.38046157  1
  Al  Al4  1  0.55675965  0.20661348  0.06661716  1
  Al  Al5  1  0.11410109  0.09545239  0.87900381  1
  Al  Al6  1  0.21497483  0.20990320  0.63946311  1
  Al  Al7  1  0.77336951  0.09113727  0.31778911  1
  Al  Al8  1  0.89101243  0.20691526  0.13522268  1
  Al  Al9  1  0.44439001  0.09100936  0.85941259  1
  Al  Al10  1  0.56315048  0.21013641  0.57227851  1
  Al  Al11  1  0.10647783  0.42615604  0.38534367  1
  Al  Al12  1  0.22462005  0.54141413  0.07448680  1
  Al  Al13  1  0.77881762  0.43056325  0.87847718  1
  Al  Al14  1  0.89464687  0.52846690  0.63923471  1
  Al  Al15  1  0.44652004  0.42969914  0.31985073  1
  Al  Al16  1  0.54743169  0.54648326  0.06384033  1
  Al  Al17  1  0.10889071  0.42557216  0.89222306  1
  Al  Al18  1  0.22457778  0.54239163  0.56746415  1
  Al  Al19  1  0.78365120  0.41833094  0.39642210  1
  Al  Al20  1  0.88817741  0.53116342  0.13784377  1
  Al  Al21  1  0.44148288  0.43526311  0.81876664  1
  Al  Al22  1  0.55408412  0.53894026  0.58239599  1
  Al  Al23  1  0.11193233  0.76408708  0.32020519  1
  Al  Al24  1  0.22965108  0.86470048  0.06421384  1
  Al  Al25  1  0.77293830  0.76605940  0.81851379  1
  Al  Al26  1  0.89043815  0.87696901  0.56849340  1
  Al  Al27  1  0.44344052  0.76031058  0.32373803  1
  Al  Al28  1  0.55439732  0.86596351  0.06496863  1
  Al  Al29  1  0.11726344  0.75838828  0.81961220  1
  Al  Al30  1  0.22155106  0.87147235  0.58334963  1
  Al  Al31  1  0.77265507  0.76608268  0.31993514  1
  Al  Al32  1  0.88771510  0.87235302  0.06797801  1
  Al  Al33  1  0.55699601  0.86657597  0.57878224  1
  B  B34  1  0.89350223  0.20852283  0.64716478  1
  B  B35  1  0.44505952  0.75901190  0.81577827  1
  N  N36  1  0.21843672  0.20272806  0.32912604  1
  N  N37  1  0.10701970  0.09672826  0.06969727  1
  N  N38  1  0.89592009  0.21151361  0.80904835  1
  N  N39  1  0.78980932  0.10370155  0.62397072  1
  N  N40  1  0.55636926  0.20950458  0.38132798  1
  N  N41  1  0.44193372  0.09333055  0.08563580  1
  N  N42  1  0.22020910  0.21017320  0.82546080  1
  N  N43  1  0.08301129  0.11081179  0.58958785  1
  N  N44  1  0.88987423  0.20738604  0.32393597  1
  N  N45  1  0.77403637  0.09077456  0.12753882  1
  N  N46  1  0.56095603  0.21016983  0.87486851  1
  N  N47  1  0.44296351  0.09654388  0.59904885  1
  N  N48  1  0.22439463  0.54205874  0.37570709  1
  N  N49  1  0.10866335  0.42376888  0.08274711  1
  N  N50  1  0.89407841  0.53576838  0.82791386  1
  N  N51  1  0.79345095  0.39959516  0.58961238  1
  N  N52  1  0.55111805  0.54270231  0.38986959  1
  N  N53  1  0.44747178  0.42794406  0.13039723  1
  N  N54  1  0.22503243  0.54166470  0.88346435  1
  N  N55  1  0.10900006  0.42587947  0.57504800  1
  N  N56  1  0.88635858  0.53282726  0.32918924  1
  N  N57  1  0.77959268  0.42306800  0.06883111  1
  N  N58  1  0.53940055  0.56699049  0.86971744  1
  N  N59  1  0.44179244  0.42898801  0.63272864  1
  N  N60  1  0.22538801  0.86886512  0.39014051  1
  N  N61  1  0.11078172  0.76428183  0.13037772  1
  N  N62  1  0.89015463  0.87464808  0.87891412  1
  N  N63  1  0.77826057  0.76574893  0.62853219  1
  N  N64  1  0.55672311  0.86570553  0.38660658  1
  N  N65  1  0.44404982  0.76019880  0.13575570  1
  N  N66  1  0.25061583  0.85614286  0.86980802  1
  N  N67  1  0.11014432  0.75966451  0.63268913  1
  N  N68  1  0.88906155  0.87159485  0.37993379  1
  N  N69  1  0.77380563  0.76454560  0.12709011  1
  N  N70  1  0.54626525  0.85478190  0.87105621  1
  N  N71  1  0.44483623  0.76080770  0.65313433  1
