# generated using pymatgen
data_Al17BN18
_symmetry_space_group_name_H-M   'P 1'
_cell_length_a   9.31439002
_cell_length_b   9.32644522
_cell_length_c   10.12194763
_cell_angle_alpha   90.06752934
_cell_angle_beta   90.08512252
_cell_angle_gamma   60.14535137
_symmetry_Int_Tables_number   1
_chemical_formula_structural   Al17BN18
_chemical_formula_sum   'Al34 B2 N36'
_cell_volume   762.60381995
_cell_formula_units_Z   2
loop_
 _symmetry_equiv_pos_site_id
 _symmetry_equiv_pos_as_xyz
  1  'x, y, z'
loop_
 _atom_site_type_symbol
 _atom_site_label
 _atom_site_symmetry_multiplicity
 _atom_site_fract_x
 _atom_site_fract_y
 _atom_site_fract_z
 _atom_site_occupancy
  Al  Al0  1  0.10025906  0.10113418  0.39653048  1
  Al  Al1  1  0.22322571  0.20033831  0.13812909  1
  Al  Al2  1  0.77987728  0.09456335  0.81273922  1
  Al  Al3  1  0.43866213  0.09592715  0.38556925  1
  Al  Al4  1  0.55725200  0.20712528  0.06661498  1
  Al  Al5  1  0.11406803  0.09547130  0.87883267  1
  Al  Al6  1  0.21549381  0.20968053  0.63959412  1
  Al  Al7  1  0.77332308  0.09114330  0.31783284  1
  Al  Al8  1  0.89111141  0.20691386  0.13527685  1
  Al  Al9  1  0.44310216  0.09161679  0.86700391  1
  Al  Al10  1  0.56332553  0.21043436  0.57212149  1
  Al  Al11  1  0.10663303  0.42597130  0.38524578  1
  Al  Al12  1  0.22454521  0.54146255  0.07440464  1
  Al  Al13  1  0.77879561  0.43056306  0.87844767  1
  Al  Al14  1  0.89467505  0.52842578  0.63922653  1
  Al  Al15  1  0.44656476  0.42960847  0.31988508  1
  Al  Al16  1  0.54738674  0.54646772  0.06375291  1
  Al  Al17  1  0.10885981  0.42557588  0.89207927  1
  Al  Al18  1  0.22450815  0.54240241  0.56739432  1
  Al  Al19  1  0.78366233  0.41831942  0.39640475  1
  Al  Al20  1  0.88828794  0.53104518  0.13790965  1
  Al  Al21  1  0.44149893  0.43521302  0.81867644  1
  Al  Al22  1  0.55404190  0.53898253  0.58230165  1
  Al  Al23  1  0.11195169  0.76407689  0.32021716  1
  Al  Al24  1  0.22955686  0.86473310  0.06412590  1
  Al  Al25  1  0.77274768  0.76622476  0.81840964  1
  Al  Al26  1  0.89044858  0.87696410  0.56842028  1
  Al  Al27  1  0.44350685  0.76034362  0.32378840  1
  Al  Al28  1  0.55492973  0.86488921  0.06503716  1
  Al  Al29  1  0.11724904  0.75839559  0.81956946  1
  Al  Al30  1  0.22149989  0.87152900  0.58329536  1
  Al  Al31  1  0.77260342  0.76610495  0.32000523  1
  Al  Al32  1  0.88777619  0.87232195  0.06790736  1
  Al  Al33  1  0.55705812  0.86624703  0.57877939  1
  B  B34  1  0.89359942  0.20855149  0.64711554  1
  B  B35  1  0.44516440  0.75903019  0.81580471  1
  N  N36  1  0.21918292  0.20237039  0.32865431  1
  N  N37  1  0.10709027  0.09677893  0.06960110  1
  N  N38  1  0.89594283  0.21152045  0.80895229  1
  N  N39  1  0.78981801  0.10364232  0.62396487  1
  N  N40  1  0.55650513  0.20959775  0.38098224  1
  N  N41  1  0.44116621  0.09368170  0.08067675  1
  N  N42  1  0.22072412  0.20992182  0.82520450  1
  N  N43  1  0.08305218  0.11089385  0.58953664  1
  N  N44  1  0.88999767  0.20735496  0.32387058  1
  N  N45  1  0.77409695  0.09067716  0.12763236  1
  N  N46  1  0.56110143  0.21041697  0.87478974  1
  N  N47  1  0.44176802  0.09710188  0.59419531  1
  N  N48  1  0.22438491  0.54206824  0.37571117  1
  N  N49  1  0.10876499  0.42362955  0.08263720  1
  N  N50  1  0.89405657  0.53578951  0.82783870  1
  N  N51  1  0.79342403  0.39960728  0.58955979  1
  N  N52  1  0.55110378  0.54269606  0.38985606  1
  N  N53  1  0.44737238  0.42802570  0.13045063  1
  N  N54  1  0.22501456  0.54168031  0.88347350  1
  N  N55  1  0.10899747  0.42579471  0.57498089  1
  N  N56  1  0.88648108  0.53272160  0.32910432  1
  N  N57  1  0.77958478  0.42306526  0.06879535  1
  N  N58  1  0.53936998  0.56696039  0.86973768  1
  N  N59  1  0.44172871  0.42905998  0.63272537  1
  N  N60  1  0.22538907  0.86886590  0.39015452  1
  N  N61  1  0.11077637  0.76428050  0.13039714  1
  N  N62  1  0.89010543  0.87467435  0.87893673  1
  N  N63  1  0.77819983  0.76585932  0.62858275  1
  N  N64  1  0.55689835  0.86542023  0.38632396  1
  N  N65  1  0.44394255  0.76019086  0.13580153  1
  N  N66  1  0.25057454  0.85616264  0.86983419  1
  N  N67  1  0.11013180  0.75966932  0.63270449  1
  N  N68  1  0.88909900  0.87157322  0.37993953  1
  N  N69  1  0.77386571  0.76456117  0.12718237  1
  N  N70  1  0.54632417  0.85445058  0.87099815  1
  N  N71  1  0.44479037  0.76080097  0.65317386  1
