# generated using pymatgen
data_Al17BN18
_symmetry_space_group_name_H-M   'P 1'
_cell_length_a   9.32668470
_cell_length_b   9.33083615
_cell_length_c   10.12947633
_cell_angle_alpha   90.10104924
_cell_angle_beta   90.02882808
_cell_angle_gamma   60.16087951
_symmetry_Int_Tables_number   1
_chemical_formula_structural   Al17BN18
_chemical_formula_sum   'Al34 B2 N36'
_cell_volume   764.65676493
_cell_formula_units_Z   2
loop_
 _symmetry_equiv_pos_site_id
 _symmetry_equiv_pos_as_xyz
  1  'x, y, z'
loop_
 _atom_site_type_symbol
 _atom_site_label
 _atom_site_symmetry_multiplicity
 _atom_site_fract_x
 _atom_site_fract_y
 _atom_site_fract_z
 _atom_site_occupancy
  Al  Al0  1  0.10398050  0.10184653  0.39291029  1
  Al  Al1  1  0.22053621  0.20326957  0.13706351  1
  Al  Al2  1  0.78110064  0.09741197  0.87097292  1
  Al  Al3  1  0.44375968  0.09421014  0.39099401  1
  Al  Al4  1  0.55447968  0.21082865  0.08168617  1
  Al  Al5  1  0.11166092  0.09503727  0.87451912  1
  Al  Al6  1  0.21466084  0.20824657  0.63781191  1
  Al  Al7  1  0.77902498  0.10328252  0.39152626  1
  Al  Al8  1  0.88943016  0.20680680  0.13315459  1
  Al  Al9  1  0.43972958  0.08683342  0.88424242  1
  Al  Al10  1  0.55890001  0.20450346  0.60929904  1
  Al  Al11  1  0.10918289  0.42535169  0.38211535  1
  Al  Al12  1  0.22422793  0.54311884  0.07219331  1
  Al  Al13  1  0.77915507  0.42756470  0.87466872  1
  Al  Al14  1  0.89203915  0.53123854  0.63775213  1
  Al  Al15  1  0.44785281  0.42924813  0.31887619  1
  Al  Al16  1  0.54933179  0.55044607  0.06047997  1
  Al  Al17  1  0.10866201  0.42471811  0.88960146  1
  Al  Al18  1  0.22503769  0.54083638  0.56393966  1
  Al  Al19  1  0.78549848  0.42050515  0.39274710  1
  Al  Al20  1  0.88616897  0.53783920  0.13697483  1
  Al  Al21  1  0.43896803  0.43694685  0.81713771  1
  Al  Al22  1  0.55475322  0.53601365  0.57750234  1
  Al  Al23  1  0.11035362  0.76619866  0.31861545  1
  Al  Al24  1  0.23229103  0.86621210  0.06081764  1
  Al  Al25  1  0.77006772  0.75484844  0.88552417  1
  Al  Al26  1  0.89462474  0.87196430  0.57713857  1
  Al  Al27  1  0.44182344  0.75958633  0.32143293  1
  Al  Al28  1  0.55983728  0.87732700  0.13974704  1
  Al  Al29  1  0.11789400  0.75622768  0.81627459  1
  Al  Al30  1  0.21993997  0.87087932  0.57831212  1
  Al  Al31  1  0.77460125  0.75888290  0.38951170  1
  Al  Al32  1  0.89611763  0.87027897  0.06444022  1
  Al  Al33  1  0.55486949  0.86974415  0.64468969  1
  B  B34  1  0.88997445  0.20594763  0.64125496  1
  B  B35  1  0.43988409  0.75640093  0.80978944  1
  N  N36  1  0.22222954  0.20238888  0.32636510  1
  N  N37  1  0.10757777  0.09838134  0.06701415  1
  N  N38  1  0.89038958  0.20631758  0.80322692  1
  N  N39  1  0.79237022  0.10882625  0.58994145  1
  N  N40  1  0.55486604  0.20958973  0.36645142  1
  N  N41  1  0.44101136  0.09415230  0.07446202  1
  N  N42  1  0.22103856  0.20778870  0.82395212  1
  N  N43  1  0.08314671  0.11013580  0.58671952  1
  N  N44  1  0.89006287  0.20648369  0.32080372  1
  N  N45  1  0.78054706  0.10022285  0.06873005  1
  N  N46  1  0.55279244  0.20570808  0.84855444  1
  N  N47  1  0.44038987  0.08870378  0.58202275  1
  N  N48  1  0.22479964  0.54334691  0.37311694  1
  N  N49  1  0.10843581  0.42524053  0.08124823  1
  N  N50  1  0.89173779  0.53713181  0.82394952  1
  N  N51  1  0.79406701  0.39929584  0.58657723  1
  N  N52  1  0.55340138  0.54366762  0.38696759  1
  N  N53  1  0.44662040  0.43312443  0.12729423  1
  N  N54  1  0.22435787  0.54114931  0.88233880  1
  N  N55  1  0.10891085  0.42468284  0.57307849  1
  N  N56  1  0.88624253  0.53843028  0.32606183  1
  N  N57  1  0.78148313  0.42468987  0.06716878  1
  N  N58  1  0.53964762  0.56679532  0.86769372  1
  N  N59  1  0.43910986  0.43122397  0.63101537  1
  N  N60  1  0.22611715  0.86990733  0.38747648  1
  N  N61  1  0.11253692  0.76581619  0.12911751  1
  N  N62  1  0.89506737  0.86624682  0.86903070  1
  N  N63  1  0.77265662  0.75539135  0.58112809  1
  N  N64  1  0.55847948  0.87696182  0.32905699  1
  N  N65  1  0.44248032  0.76065472  0.13312463  1
  N  N66  1  0.25011166  0.85545427  0.86750293  1
  N  N67  1  0.11271135  0.75627253  0.63124561  1
  N  N68  1  0.89371375  0.87217663  0.38178846  1
  N  N69  1  0.77628323  0.75781712  0.07667662  1
  N  N70  1  0.54471722  0.86076226  0.83276489  1
  N  N71  1  0.43760756  0.75380188  0.64824882  1
