# generated using pymatgen
data_Al17BN18
_symmetry_space_group_name_H-M   'P 1'
_cell_length_a   9.32678777
_cell_length_b   9.32805286
_cell_length_c   10.14245560
_cell_angle_alpha   90.08523642
_cell_angle_beta   90.03335115
_cell_angle_gamma   60.16048289
_symmetry_Int_Tables_number   1
_chemical_formula_structural   Al17BN18
_chemical_formula_sum   'Al34 B2 N36'
_cell_volume   765.41398699
_cell_formula_units_Z   2
loop_
 _symmetry_equiv_pos_site_id
 _symmetry_equiv_pos_as_xyz
  1  'x, y, z'
loop_
 _atom_site_type_symbol
 _atom_site_label
 _atom_site_symmetry_multiplicity
 _atom_site_fract_x
 _atom_site_fract_y
 _atom_site_fract_z
 _atom_site_occupancy
  Al  Al0  1  0.10405716  0.10197692  0.39317356  1
  Al  Al1  1  0.22081973  0.20310605  0.13691345  1
  Al  Al2  1  0.78149657  0.09732444  0.87039096  1
  Al  Al3  1  0.44216829  0.09268415  0.39080222  1
  Al  Al4  1  0.55329707  0.21307201  0.06627773  1
  Al  Al5  1  0.11146113  0.09517297  0.87483237  1
  Al  Al6  1  0.21476175  0.20823499  0.63810273  1
  Al  Al7  1  0.78216684  0.10156754  0.39046370  1
  Al  Al8  1  0.88937139  0.20653919  0.13297920  1
  Al  Al9  1  0.43874838  0.08644555  0.88487613  1
  Al  Al10  1  0.55693533  0.20883580  0.58547572  1
  Al  Al11  1  0.10902925  0.42558094  0.38233484  1
  Al  Al12  1  0.22485812  0.54256972  0.07243835  1
  Al  Al13  1  0.77893128  0.42773592  0.87485263  1
  Al  Al14  1  0.89199101  0.53125550  0.63791717  1
  Al  Al15  1  0.44831493  0.42841386  0.31866843  1
  Al  Al16  1  0.54923204  0.54986667  0.06082468  1
  Al  Al17  1  0.10861832  0.42493794  0.88979121  1
  Al  Al18  1  0.22491146  0.54101524  0.56437523  1
  Al  Al19  1  0.78539781  0.42079630  0.39304057  1
  Al  Al20  1  0.88620326  0.53773978  0.13690324  1
  Al  Al21  1  0.43957312  0.43535132  0.81682568  1
  Al  Al22  1  0.55469153  0.53629446  0.57807301  1
  Al  Al23  1  0.11092436  0.76571683  0.31845972  1
  Al  Al24  1  0.23239453  0.86615006  0.06086270  1
  Al  Al25  1  0.77012789  0.75481027  0.88577954  1
  Al  Al26  1  0.89437712  0.87221267  0.57780677  1
  Al  Al27  1  0.44190112  0.75926764  0.32124410  1
  Al  Al28  1  0.55989619  0.87746532  0.13952496  1
  Al  Al29  1  0.11803738  0.75616754  0.81643073  1
  Al  Al30  1  0.21999701  0.87099746  0.57841269  1
  Al  Al31  1  0.77477972  0.75860402  0.38972183  1
  Al  Al32  1  0.89616281  0.87038478  0.06469102  1
  Al  Al33  1  0.55486733  0.87022151  0.64507792  1
  B  B34  1  0.88983486  0.20576412  0.64126149  1
  B  B35  1  0.43979828  0.75614673  0.80996164  1
  N  N36  1  0.22195930  0.20272133  0.32619435  1
  N  N37  1  0.10760516  0.09837915  0.06705957  1
  N  N38  1  0.89035113  0.20650938  0.80314026  1
  N  N39  1  0.79294045  0.10860919  0.59031413  1
  N  N40  1  0.55387034  0.21184618  0.38091701  1
  N  N41  1  0.44063729  0.09370217  0.07557697  1
  N  N42  1  0.22076370  0.20798113  0.82394615  1
  N  N43  1  0.08314022  0.11024908  0.58666065  1
  N  N44  1  0.89020851  0.20691607  0.32067955  1
  N  N45  1  0.78141058  0.09923445  0.07060342  1
  N  N46  1  0.55090353  0.20971659  0.86413367  1
  N  N47  1  0.43956312  0.08840003  0.58208433  1
  N  N48  1  0.22531354  0.54295446  0.37348770  1
  N  N49  1  0.10841052  0.42524408  0.08122850  1
  N  N50  1  0.89169059  0.53716914  0.82390344  1
  N  N51  1  0.79396663  0.39940240  0.58653440  1
  N  N52  1  0.55326146  0.54346846  0.38731030  1
  N  N53  1  0.44768385  0.43086118  0.12869663  1
  N  N54  1  0.22455289  0.54120761  0.88247883  1
  N  N55  1  0.10882582  0.42476618  0.57306167  1
  N  N56  1  0.88625795  0.53841116  0.32600091  1
  N  N57  1  0.78146616  0.42462108  0.06711967  1
  N  N58  1  0.53934913  0.56673080  0.86780392  1
  N  N59  1  0.43969116  0.42996416  0.63177027  1
  N  N60  1  0.22623372  0.86994357  0.38758730  1
  N  N61  1  0.11297474  0.76531321  0.12923336  1
  N  N62  1  0.89488238  0.86636689  0.86880957  1
  N  N63  1  0.77257590  0.75544585  0.58099993  1
  N  N64  1  0.55889624  0.87673274  0.32874100  1
  N  N65  1  0.44263712  0.76021920  0.13331125  1
  N  N66  1  0.25010844  0.85556307  0.86764084  1
  N  N67  1  0.11277291  0.75632359  0.63142477  1
  N  N68  1  0.89414161  0.87162491  0.38170934  1
  N  N69  1  0.77642854  0.75760842  0.07658615  1
  N  N70  1  0.54492269  0.86085879  0.83277621  1
  N  N71  1  0.43760682  0.75385129  0.64853966  1
