# generated using pymatgen
data_Al17BN18
_symmetry_space_group_name_H-M   'P 1'
_cell_length_a   9.32628506
_cell_length_b   9.33297998
_cell_length_c   10.05919394
_cell_angle_alpha   90.10660487
_cell_angle_beta   90.16532185
_cell_angle_gamma   60.26763216
_symmetry_Int_Tables_number   1
_chemical_formula_structural   Al17BN18
_chemical_formula_sum   'Al34 B2 N36'
_cell_volume   760.30157159
_cell_formula_units_Z   2
loop_
 _symmetry_equiv_pos_site_id
 _symmetry_equiv_pos_as_xyz
  1  'x, y, z'
loop_
 _atom_site_type_symbol
 _atom_site_label
 _atom_site_symmetry_multiplicity
 _atom_site_fract_x
 _atom_site_fract_y
 _atom_site_fract_z
 _atom_site_occupancy
  Al  Al0  1  0.10039580  0.09927890  0.38488255  1
  Al  Al1  1  0.22299135  0.20484224  0.06725618  1
  Al  Al2  1  0.77778691  0.09538529  0.80210848  1
  Al  Al3  1  0.44292011  0.09290972  0.30937010  1
  Al  Al4  1  0.55632041  0.20522145  0.05649820  1
  Al  Al5  1  0.11276198  0.09298045  0.86136316  1
  Al  Al6  1  0.21993138  0.20646481  0.58386351  1
  Al  Al7  1  0.77415919  0.09143253  0.30724596  1
  Al  Al8  1  0.89138116  0.20641540  0.12395315  1
  Al  Al9  1  0.44859902  0.08875624  0.80703851  1
  Al  Al10  1  0.56085450  0.20736127  0.55669444  1
  Al  Al11  1  0.11565301  0.42373794  0.31163769  1
  Al  Al12  1  0.22149999  0.53884219  0.05912449  1
  Al  Al13  1  0.77892548  0.43110550  0.86760634  1
  Al  Al14  1  0.88631468  0.53349911  0.62452709  1
  Al  Al15  1  0.44675446  0.42907030  0.30857546  1
  Al  Al16  1  0.54626331  0.54648188  0.05230386  1
  Al  Al17  1  0.11699989  0.42944363  0.80906998  1
  Al  Al18  1  0.22253509  0.53942137  0.55461899  1
  Al  Al19  1  0.78486490  0.41832456  0.38461646  1
  Al  Al20  1  0.88197555  0.53555017  0.12364827  1
  Al  Al21  1  0.44302579  0.43353513  0.80728347  1
  Al  Al22  1  0.55359655  0.53833554  0.57034149  1
  Al  Al23  1  0.11236996  0.76294799  0.30841924  1
  Al  Al24  1  0.22951024  0.86287038  0.05173155  1
  Al  Al25  1  0.77014166  0.76827741  0.80785326  1
  Al  Al26  1  0.89058097  0.87733490  0.55685316  1
  Al  Al27  1  0.44351320  0.76066353  0.31191373  1
  Al  Al28  1  0.55254512  0.86913017  0.05372817  1
  Al  Al29  1  0.11674088  0.75875794  0.80696518  1
  Al  Al30  1  0.22206366  0.86924221  0.57177257  1
  Al  Al31  1  0.77248932  0.76673533  0.31038011  1
  Al  Al32  1  0.88829891  0.87250498  0.05601832  1
  Al  Al33  1  0.55457736  0.87169909  0.56176961  1
  B  B34  1  0.89174868  0.20808993  0.63638513  1
  B  B35  1  0.44419981  0.75989433  0.80344257  1
  N  N36  1  0.22308946  0.20375515  0.36300780  1
  N  N37  1  0.10442430  0.09312495  0.05673740  1
  N  N38  1  0.89324026  0.21290755  0.79763134  1
  N  N39  1  0.78770438  0.10446226  0.61163838  1
  N  N40  1  0.55476294  0.20634437  0.36714323  1
  N  N41  1  0.44599301  0.09119104  0.11594034  1
  N  N42  1  0.22708592  0.20733303  0.85095637  1
  N  N43  1  0.08196815  0.10772691  0.58212472  1
  N  N44  1  0.89083896  0.20733987  0.31284687  1
  N  N45  1  0.77423144  0.09067064  0.11553379  1
  N  N46  1  0.55839393  0.20701768  0.86644752  1
  N  N47  1  0.44999985  0.09299109  0.61795005  1
  N  N48  1  0.22301026  0.53996843  0.36575119  1
  N  N49  1  0.11386448  0.42558206  0.11638145  1
  N  N50  1  0.88790143  0.54080235  0.82002426  1
  N  N51  1  0.79339331  0.39869570  0.57748598  1
  N  N52  1  0.55159729  0.54252950  0.37703360  1
  N  N53  1  0.44557773  0.42816511  0.11714784  1
  N  N54  1  0.22369295  0.54048872  0.87071450  1
  N  N55  1  0.11524259  0.42990040  0.61547536  1
  N  N56  1  0.88358009  0.53629045  0.32224586  1
  N  N57  1  0.77872941  0.42252229  0.05823279  1
  N  N58  1  0.53908921  0.56724138  0.85743767  1
  N  N59  1  0.44249308  0.42705167  0.61946655  1
  N  N60  1  0.22563873  0.86761889  0.37765973  1
  N  N61  1  0.11134621  0.76195391  0.11709166  1
  N  N62  1  0.89037702  0.87521080  0.86605317  1
  N  N63  1  0.77541314  0.76814294  0.61495963  1
  N  N64  1  0.55342598  0.87225238  0.37199037  1
  N  N65  1  0.44378455  0.76045589  0.12293751  1
  N  N66  1  0.25098456  0.85462889  0.85615443  1
  N  N67  1  0.11032173  0.75836514  0.61950779  1
  N  N68  1  0.89006280  0.87195777  0.36759632  1
  N  N69  1  0.77244489  0.76654099  0.11478034  1
  N  N70  1  0.54329411  0.86066121  0.86199012  1
  N  N71  1  0.44603671  0.76142928  0.63988181  1
