# generated using pymatgen
data_Al17BN18
_symmetry_space_group_name_H-M   'P 1'
_cell_length_a   9.31165979
_cell_length_b   9.31457582
_cell_length_c   10.11804507
_cell_angle_alpha   90.05437484
_cell_angle_beta   90.07543718
_cell_angle_gamma   60.15787691
_symmetry_Int_Tables_number   1
_chemical_formula_structural   Al17BN18
_chemical_formula_sum   'Al34 B2 N36'
_cell_volume   761.21218911
_cell_formula_units_Z   2
loop_
 _symmetry_equiv_pos_site_id
 _symmetry_equiv_pos_as_xyz
  1  'x, y, z'
loop_
 _atom_site_type_symbol
 _atom_site_label
 _atom_site_symmetry_multiplicity
 _atom_site_fract_x
 _atom_site_fract_y
 _atom_site_fract_z
 _atom_site_occupancy
  Al  Al0  1  0.10057572  0.10115300  0.39712793  1
  Al  Al1  1  0.21674091  0.20352928  0.13858228  1
  Al  Al2  1  0.77906815  0.09478078  0.81375846  1
  Al  Al3  1  0.44762822  0.09093603  0.32649383  1
  Al  Al4  1  0.55537076  0.20479728  0.06779210  1
  Al  Al5  1  0.11448314  0.09539513  0.87900581  1
  Al  Al6  1  0.21290039  0.21070297  0.63924581  1
  Al  Al7  1  0.77364354  0.09130702  0.31869609  1
  Al  Al8  1  0.89047474  0.20686806  0.13543207  1
  Al  Al9  1  0.45018864  0.08843276  0.82025267  1
  Al  Al10  1  0.56099653  0.20746311  0.57047475  1
  Al  Al11  1  0.10709196  0.42541141  0.38608517  1
  Al  Al12  1  0.22488646  0.54158540  0.07450193  1
  Al  Al13  1  0.77888807  0.43065402  0.87863810  1
  Al  Al14  1  0.89424048  0.52901415  0.63941580  1
  Al  Al15  1  0.44661310  0.42942962  0.32052880  1
  Al  Al16  1  0.54756395  0.54655376  0.06415641  1
  Al  Al17  1  0.10919847  0.42541958  0.89202809  1
  Al  Al18  1  0.22510524  0.54222661  0.56769059  1
  Al  Al19  1  0.78384802  0.41826692  0.39677945  1
  Al  Al20  1  0.88765694  0.53180724  0.13799036  1
  Al  Al21  1  0.44159493  0.43431620  0.81950262  1
  Al  Al22  1  0.55430060  0.53874682  0.58313092  1
  Al  Al23  1  0.11200728  0.76401196  0.32040593  1
  Al  Al24  1  0.23002101  0.86414117  0.06428296  1
  Al  Al25  1  0.77238323  0.76644559  0.81916334  1
  Al  Al26  1  0.89028532  0.87707777  0.56892836  1
  Al  Al27  1  0.44340754  0.76054503  0.32429323  1
  Al  Al28  1  0.55286160  0.86961157  0.06561751  1
  Al  Al29  1  0.11720752  0.75840468  0.81957748  1
  Al  Al30  1  0.22191462  0.87114397  0.58340490  1
  Al  Al31  1  0.77297284  0.76575334  0.32074933  1
  Al  Al32  1  0.88789200  0.87225150  0.06814705  1
  Al  Al33  1  0.55547603  0.87073351  0.57596417  1
  B  B34  1  0.89258507  0.20854749  0.64743768  1
  B  B35  1  0.44397656  0.75996397  0.81635010  1
  N  N36  1  0.21542660  0.20406745  0.33047004  1
  N  N37  1  0.10693373  0.09631485  0.06944818  1
  N  N38  1  0.89535964  0.21145228  0.80942278  1
  N  N39  1  0.78867439  0.10432647  0.62431244  1
  N  N40  1  0.55452554  0.20738329  0.38179439  1
  N  N41  1  0.44835683  0.09023508  0.12644799  1
  N  N42  1  0.21996761  0.21021375  0.82788956  1
  N  N43  1  0.08297063  0.11038955  0.58998998  1
  N  N44  1  0.88982043  0.20731174  0.32422652  1
  N  N45  1  0.77388948  0.09078921  0.12777013  1
  N  N46  1  0.55839696  0.20738224  0.87832883  1
  N  N47  1  0.44969396  0.09338459  0.62741362  1
  N  N48  1  0.22449289  0.54200793  0.37599850  1
  N  N49  1  0.10841656  0.42437099  0.08235259  1
  N  N50  1  0.89383030  0.53618009  0.82810687  1
  N  N51  1  0.79363486  0.39952731  0.58987106  1
  N  N52  1  0.55127022  0.54271955  0.39032627  1
  N  N53  1  0.44762197  0.42755615  0.13063104  1
  N  N54  1  0.22510765  0.54183766  0.88364997  1
  N  N55  1  0.10922218  0.42598076  0.57558958  1
  N  N56  1  0.88638554  0.53297939  0.32950291  1
  N  N57  1  0.77977731  0.42302990  0.06895238  1
  N  N58  1  0.53941694  0.56721207  0.86988003  1
  N  N59  1  0.44249567  0.42758990  0.63301531  1
  N  N60  1  0.22541187  0.86864279  0.39034425  1
  N  N61  1  0.11082067  0.76428742  0.13056922  1
  N  N62  1  0.89046544  0.87451263  0.87907543  1
  N  N63  1  0.77740323  0.76600561  0.62833855  1
  N  N64  1  0.55449767  0.87029900  0.38648684  1
  N  N65  1  0.44423138  0.76057693  0.13592796  1
  N  N66  1  0.25069585  0.85594833  0.86991848  1
  N  N67  1  0.11022291  0.75959097  0.63283419  1
  N  N68  1  0.88931043  0.87149238  0.38029629  1
  N  N69  1  0.77358039  0.76482555  0.12723247  1
  N  N70  1  0.54434176  0.85979234  0.87410358  1
  N  N71  1  0.44535863  0.76171864  0.65325948  1
