# generated using pymatgen
data_Al17BN18
_symmetry_space_group_name_H-M   'P 1'
_cell_length_a   9.32526837
_cell_length_b   9.32344639
_cell_length_c   10.09096577
_cell_angle_alpha   90.16944923
_cell_angle_beta   90.13488026
_cell_angle_gamma   60.33072057
_symmetry_Int_Tables_number   1
_chemical_formula_structural   Al17BN18
_chemical_formula_sum   'Al34 B2 N36'
_cell_volume   762.31899621
_cell_formula_units_Z   2
loop_
 _symmetry_equiv_pos_site_id
 _symmetry_equiv_pos_as_xyz
  1  'x, y, z'
loop_
 _atom_site_type_symbol
 _atom_site_label
 _atom_site_symmetry_multiplicity
 _atom_site_fract_x
 _atom_site_fract_y
 _atom_site_fract_z
 _atom_site_occupancy
  Al  Al0  1  0.10340793  0.10406202  0.40573071  1
  Al  Al1  1  0.22077405  0.20314756  0.14969708  1
  Al  Al2  1  0.77839060  0.09516150  0.89612547  1
  Al  Al3  1  0.44481127  0.09417377  0.40190007  1
  Al  Al4  1  0.56027607  0.20073604  0.14824563  1
  Al  Al5  1  0.11139689  0.09670091  0.88759306  1
  Al  Al6  1  0.21631301  0.20678198  0.65100719  1
  Al  Al7  1  0.78065421  0.09734861  0.40459805  1
  Al  Al8  1  0.88952152  0.20645887  0.14604151  1
  Al  Al9  1  0.44255599  0.08919992  0.90114396  1
  Al  Al10  1  0.56296715  0.19824513  0.65033979  1
  Al  Al11  1  0.11172588  0.42865654  0.39954959  1
  Al  Al12  1  0.22101664  0.53698717  0.14622502  1
  Al  Al13  1  0.78045158  0.42781690  0.88715634  1
  Al  Al14  1  0.89040268  0.53306609  0.65105505  1
  Al  Al15  1  0.45099056  0.43077546  0.33810490  1
  Al  Al16  1  0.54898114  0.54831385  0.07264244  1
  Al  Al17  1  0.11085845  0.42749886  0.90319777  1
  Al  Al18  1  0.21806425  0.53453032  0.64777510  1
  Al  Al19  1  0.78731297  0.42023113  0.40619136  1
  Al  Al20  1  0.88648484  0.53746823  0.14965217  1
  Al  Al21  1  0.44681497  0.43261885  0.83494691  1
  Al  Al22  1  0.55461773  0.53597950  0.59151317  1
  Al  Al23  1  0.11394631  0.76838501  0.33516294  1
  Al  Al24  1  0.23189004  0.86530710  0.07297424  1
  Al  Al25  1  0.77258108  0.75923098  0.90101645  1
  Al  Al26  1  0.88161592  0.87967671  0.65039955  1
  Al  Al27  1  0.44316889  0.75945732  0.33402894  1
  Al  Al28  1  0.55854661  0.87524291  0.15079150  1
  Al  Al29  1  0.11619768  0.76371988  0.83400423  1
  Al  Al30  1  0.21917020  0.87091045  0.59025500  1
  Al  Al31  1  0.77759167  0.76168057  0.40185086  1
  Al  Al32  1  0.88336853  0.87735484  0.14786809  1
  Al  Al33  1  0.55457972  0.87140626  0.65600344  1
  B  B34  1  0.88976827  0.20600913  0.65401990  1
  B  B35  1  0.44148214  0.75834749  0.82220714  1
  N  N36  1  0.22183830  0.20469626  0.34063937  1
  N  N37  1  0.10742323  0.09850901  0.08056701  1
  N  N38  1  0.88819399  0.20433427  0.81756875  1
  N  N39  1  0.78968298  0.10625798  0.59571045  1
  N  N40  1  0.56077013  0.20026676  0.34323115  1
  N  N41  1  0.44321382  0.09478259  0.09024923  1
  N  N42  1  0.22286981  0.20756771  0.83820845  1
  N  N43  1  0.08260490  0.11095584  0.60015399  1
  N  N44  1  0.88930108  0.20624901  0.33469190  1
  N  N45  1  0.77875254  0.09581926  0.08531167  1
  N  N46  1  0.55788408  0.19814279  0.84240194  1
  N  N47  1  0.44275599  0.09134063  0.59151736  1
  N  N48  1  0.22127406  0.53834355  0.34386296  1
  N  N49  1  0.10976032  0.42640513  0.09168228  1
  N  N50  1  0.89118214  0.53951543  0.83815033  1
  N  N51  1  0.79458490  0.39921535  0.60062551  1
  N  N52  1  0.55506144  0.54428913  0.40103848  1
  N  N53  1  0.45051756  0.43003286  0.13454655  1
  N  N54  1  0.21927383  0.53606972  0.84619223  1
  N  N55  1  0.10938869  0.42589479  0.58751545  1
  N  N56  1  0.88790402  0.53856753  0.34066541  1
  N  N57  1  0.78206789  0.42407746  0.08018516  1
  N  N58  1  0.54088828  0.56745840  0.87980673  1
  N  N59  1  0.44574955  0.42542699  0.63768106  1
  N  N60  1  0.22739400  0.87168524  0.40006069  1
  N  N61  1  0.11336187  0.76727175  0.13562119  1
  N  N62  1  0.88163970  0.87454062  0.84259444  1
  N  N63  1  0.77469382  0.75951399  0.59154136  1
  N  N64  1  0.55925822  0.87582900  0.34226923  1
  N  N65  1  0.44258787  0.75892009  0.14531362  1
  N  N66  1  0.25108108  0.85710289  0.88046994  1
  N  N67  1  0.10894522  0.76246125  0.63831994  1
  N  N68  1  0.88331482  0.87774497  0.34281264  1
  N  N69  1  0.77803453  0.75983725  0.09007761  1
  N  N70  1  0.54523433  0.86184789  0.84605792  1
  N  N71  1  0.43774696  0.75508279  0.66040349  1
