# generated using pymatgen
data_Al17BN18
_symmetry_space_group_name_H-M   'P 1'
_cell_length_a   9.32613975
_cell_length_b   9.32613708
_cell_length_c   10.07589399
_cell_angle_alpha   90.15633378
_cell_angle_beta   90.15718567
_cell_angle_gamma   60.25867698
_symmetry_Int_Tables_number   1
_chemical_formula_structural   Al17BN18
_chemical_formula_sum   'Al34 B2 N36'
_cell_volume   760.92508716
_cell_formula_units_Z   2
loop_
 _symmetry_equiv_pos_site_id
 _symmetry_equiv_pos_as_xyz
  1  'x, y, z'
loop_
 _atom_site_type_symbol
 _atom_site_label
 _atom_site_symmetry_multiplicity
 _atom_site_fract_x
 _atom_site_fract_y
 _atom_site_fract_z
 _atom_site_occupancy
  Al  Al0  1  0.10329590  0.10311608  0.40606090  1
  Al  Al1  1  0.22074026  0.20233142  0.15024547  1
  Al  Al2  1  0.77843205  0.09509405  0.89611602  1
  Al  Al3  1  0.44509986  0.09441132  0.40206810  1
  Al  Al4  1  0.56041314  0.20011075  0.14888690  1
  Al  Al5  1  0.11132673  0.09624540  0.88703400  1
  Al  Al6  1  0.21639742  0.20724719  0.65129664  1
  Al  Al7  1  0.78047429  0.09713823  0.40459520  1
  Al  Al8  1  0.88955024  0.20621512  0.14612508  1
  Al  Al9  1  0.44276212  0.08949795  0.90115754  1
  Al  Al10  1  0.56264154  0.19858321  0.65147089  1
  Al  Al11  1  0.10987881  0.42654181  0.39637449  1
  Al  Al12  1  0.22345171  0.54011954  0.10426318  1
  Al  Al13  1  0.77958333  0.42798915  0.88703487  1
  Al  Al14  1  0.89058429  0.53306039  0.65129670  1
  Al  Al15  1  0.44796864  0.43294076  0.33357429  1
  Al  Al16  1  0.54924545  0.54861560  0.07289218  1
  Al  Al17  1  0.10939594  0.42605831  0.90298702  1
  Al  Al18  1  0.22221325  0.53887698  0.59921743  1
  Al  Al19  1  0.78645396  0.41995893  0.40606109  1
  Al  Al20  1  0.88566715  0.53740608  0.15024596  1
  Al  Al21  1  0.44153345  0.43581724  0.83366409  1
  Al  Al22  1  0.55502279  0.53592010  0.59148144  1
  Al  Al23  1  0.11627703  0.76463194  0.33357410  1
  Al  Al24  1  0.23195091  0.86590841  0.07289257  1
  Al  Al25  1  0.77283494  0.75942549  0.90115774  1
  Al  Al26  1  0.88191922  0.87930488  0.65147099  1
  Al  Al27  1  0.44289238  0.75955664  0.33490150  1
  Al  Al28  1  0.55857132  0.87523750  0.15108460  1
  Al  Al29  1  0.11915582  0.75819568  0.83366405  1
  Al  Al30  1  0.21925681  0.87168472  0.59148170  1
  Al  Al31  1  0.77774689  0.76176473  0.40206813  1
  Al  Al32  1  0.88344154  0.87708155  0.14888764  1
  Al  Al33  1  0.55484353  0.87150656  0.65618895  1
  B  B34  1  0.88955483  0.20621836  0.65449922  1
  B  B35  1  0.44146792  0.75813014  0.82260150  1
  N  N36  1  0.22216408  0.20302734  0.34074522  1
  N  N37  1  0.10722387  0.09821929  0.08041551  1
  N  N38  1  0.88790725  0.20457047  0.81778532  1
  N  N39  1  0.78956426  0.10622842  0.59615274  1
  N  N40  1  0.56039262  0.20077709  0.34328566  1
  N  N41  1  0.44308548  0.09497543  0.09040185  1
  N  N42  1  0.22290919  0.20751514  0.83829817  1
  N  N43  1  0.08255502  0.11085632  0.60086910  1
  N  N44  1  0.88927509  0.20593965  0.33487235  1
  N  N45  1  0.77885428  0.09552263  0.08558640  1
  N  N46  1  0.55730276  0.19933309  0.84298101  1
  N  N47  1  0.44288547  0.09189513  0.59190516  1
  N  N48  1  0.22383446  0.54049774  0.37321309  1
  N  N49  1  0.10777505  0.42444096  0.09463491  1
  N  N50  1  0.89085126  0.53957347  0.83829826  1
  N  N51  1  0.79419449  0.39921780  0.60086899  1
  N  N52  1  0.55454545  0.54352984  0.40084933  1
  N  N53  1  0.44959704  0.43147865  0.13883410  1
  N  N54  1  0.22299951  0.53966144  0.88430164  1
  N  N55  1  0.10795727  0.42462163  0.58777199  1
  N  N56  1  0.88636283  0.53882972  0.34074547  1
  N  N57  1  0.78155601  0.42388916  0.08041599  1
  N  N58  1  0.54058846  0.56742692  0.87990447  1
  N  N59  1  0.44317861  0.42781979  0.64166339  1
  N  N60  1  0.22686659  0.87120814  0.40084926  1
  N  N61  1  0.11480975  0.76626435  0.13883386  1
  N  N62  1  0.88267170  0.87396525  0.84298135  1
  N  N63  1  0.77523079  0.75954959  0.59190522  1
  N  N64  1  0.55915115  0.87581675  0.34279753  1
  N  N65  1  0.44253805  0.75920172  0.14561490  1
  N  N66  1  0.25076433  0.85725129  0.87990449  1
  N  N67  1  0.11115526  0.75984190  0.64166341  1
  N  N68  1  0.88411295  0.87705744  0.34328600  1
  N  N69  1  0.77830844  0.75975248  0.09040216  1
  N  N70  1  0.54536759  0.86203138  0.84635283  1
  N  N71  1  0.43835176  0.75501448  0.66028716  1
