# generated using pymatgen
data_Al17BN18
_symmetry_space_group_name_H-M   'P 1'
_cell_length_a   9.31734250
_cell_length_b   9.31177693
_cell_length_c   9.99986735
_cell_angle_alpha   89.76193465
_cell_angle_beta   90.04648473
_cell_angle_gamma   60.02325675
_symmetry_Int_Tables_number   1
_chemical_formula_structural   Al17BN18
_chemical_formula_sum   'Al34 B2 N36'
_cell_volume   751.52782107
_cell_formula_units_Z   2
loop_
 _symmetry_equiv_pos_site_id
 _symmetry_equiv_pos_as_xyz
  1  'x, y, z'
loop_
 _atom_site_type_symbol
 _atom_site_label
 _atom_site_symmetry_multiplicity
 _atom_site_fract_x
 _atom_site_fract_y
 _atom_site_fract_z
 _atom_site_occupancy
  Al  Al0  1  0.11364868  0.09166952  0.30640437  1
  Al  Al1  1  0.22314960  0.20473756  0.05761664  1
  Al  Al2  1  0.78044194  0.09658582  0.81152550  1
  Al  Al3  1  0.44486472  0.09336126  0.30988147  1
  Al  Al4  1  0.55504533  0.20501077  0.05750686  1
  Al  Al5  1  0.11182274  0.09337907  0.81182359  1
  Al  Al6  1  0.21587698  0.20795946  0.55876195  1
  Al  Al7  1  0.77728556  0.09312539  0.30590719  1
  Al  Al8  1  0.89038464  0.20175028  0.07525865  1
  Al  Al9  1  0.44323426  0.09049756  0.80803781  1
  Al  Al10  1  0.55966708  0.20842023  0.55946546  1
  Al  Al11  1  0.11107688  0.42686439  0.30955584  1
  Al  Al12  1  0.22168384  0.53923862  0.06024228  1
  Al  Al13  1  0.77508512  0.42973343  0.85834043  1
  Al  Al14  1  0.89239491  0.53405075  0.56371339  1
  Al  Al15  1  0.44585645  0.42793438  0.31009421  1
  Al  Al16  1  0.54624773  0.54771406  0.05699075  1
  Al  Al17  1  0.11282710  0.42808082  0.80815911  1
  Al  Al18  1  0.22241175  0.53966837  0.55729900  1
  Al  Al19  1  0.77962565  0.42145372  0.34696861  1
  Al  Al20  1  0.89031640  0.54180950  0.06004725  1
  Al  Al21  1  0.44156351  0.43340435  0.80882241  1
  Al  Al22  1  0.55750401  0.53609603  0.57134389  1
  Al  Al23  1  0.11122827  0.76333286  0.30913076  1
  Al  Al24  1  0.22789292  0.86965096  0.05327757  1
  Al  Al25  1  0.77312774  0.76078404  0.80742162  1
  Al  Al26  1  0.89120352  0.87734675  0.55886351  1
  Al  Al27  1  0.44412693  0.76101872  0.31232987  1
  Al  Al28  1  0.55269555  0.86931100  0.05606090  1
  Al  Al29  1  0.11611481  0.75932523  0.80858491  1
  Al  Al30  1  0.21722781  0.87651935  0.56528605  1
  Al  Al31  1  0.77619525  0.76150654  0.31055595  1
  Al  Al32  1  0.88791261  0.87182511  0.05686033  1
  Al  Al33  1  0.55381854  0.87184665  0.56398850  1
  B  B34  1  0.88805443  0.20861345  0.59726428  1
  B  B35  1  0.44297022  0.76211539  0.80485093  1
  N  N36  1  0.22245082  0.20435359  0.36923200  1
  N  N37  1  0.11944832  0.08816601  0.11467653  1
  N  N38  1  0.89385189  0.19835126  0.87732697  1
  N  N39  1  0.79268244  0.10999278  0.61658645  1
  N  N40  1  0.55625777  0.20489897  0.36953434  1
  N  N41  1  0.44534240  0.09242813  0.11719221  1
  N  N42  1  0.22231806  0.20595268  0.86676084  1
  N  N43  1  0.08155109  0.11010516  0.61766149  1
  N  N44  1  0.89151792  0.20097975  0.33637010  1
  N  N45  1  0.77403515  0.09007034  0.11580845  1
  N  N46  1  0.55552520  0.20585631  0.86580649  1
  N  N47  1  0.44385391  0.09577381  0.61804003  1
  N  N48  1  0.22233446  0.53921236  0.36709809  1
  N  N49  1  0.11158867  0.42675870  0.11943288  1
  N  N50  1  0.89307924  0.54155526  0.86678479  1
  N  N51  1  0.79416184  0.39670627  0.59979160  1
  N  N52  1  0.55212053  0.54165448  0.37737869  1
  N  N53  1  0.44478154  0.42795375  0.11825586  1
  N  N54  1  0.22224041  0.53881465  0.87029470  1
  N  N55  1  0.11346342  0.42781849  0.61879097  1
  N  N56  1  0.88987919  0.53969012  0.37125501  1
  N  N57  1  0.77228463  0.43258288  0.08519943  1
  N  N58  1  0.53785260  0.56700399  0.85981442  1
  N  N59  1  0.44255016  0.42794554  0.62027893  1
  N  N60  1  0.22397812  0.87172896  0.37467914  1
  N  N61  1  0.11149068  0.76305317  0.11638586  1
  N  N62  1  0.88865384  0.87174177  0.86534634  1
  N  N63  1  0.77814425  0.76227814  0.61799873  1
  N  N64  1  0.55472250  0.87124113  0.37286788  1
  N  N65  1  0.44293253  0.76188286  0.12376649  1
  N  N66  1  0.24680820  0.86073145  0.85884704  1
  N  N67  1  0.11131124  0.76018115  0.61929521  1
  N  N68  1  0.88873815  0.87182838  0.36918603  1
  N  N69  1  0.77557858  0.76240753  0.11841673  1
  N  N70  1  0.54307590  0.85958193  0.86189196  1
  N  N71  1  0.44313733  0.76284144  0.63963857  1
