# generated using pymatgen
data_Al17BN18
_symmetry_space_group_name_H-M   'P 1'
_cell_length_a   9.34522628
_cell_length_b   9.34521834
_cell_length_c   10.10078318
_cell_angle_alpha   90.08269496
_cell_angle_beta   90.08521651
_cell_angle_gamma   60.12659059
_symmetry_Int_Tables_number   1
_chemical_formula_structural   Al17BN18
_chemical_formula_sum   'Al34 B2 N36'
_cell_volume   764.92157444
_cell_formula_units_Z   2
loop_
 _symmetry_equiv_pos_site_id
 _symmetry_equiv_pos_as_xyz
  1  'x, y, z'
loop_
 _atom_site_type_symbol
 _atom_site_label
 _atom_site_symmetry_multiplicity
 _atom_site_fract_x
 _atom_site_fract_y
 _atom_site_fract_z
 _atom_site_occupancy
  Al  Al0  1  0.10413398  0.10169382  0.39287872  1
  Al  Al1  1  0.22090888  0.20228205  0.13692664  1
  Al  Al2  1  0.78138189  0.09807128  0.86963449  1
  Al  Al3  1  0.44204498  0.09127036  0.39104058  1
  Al  Al4  1  0.55312975  0.21204305  0.06448524  1
  Al  Al5  1  0.11148516  0.09528477  0.87522439  1
  Al  Al6  1  0.21426194  0.20945617  0.63800818  1
  Al  Al7  1  0.78349000  0.10017636  0.38931471  1
  Al  Al8  1  0.88911421  0.20579537  0.13307228  1
  Al  Al9  1  0.43808000  0.08844066  0.88213562  1
  Al  Al10  1  0.55683326  0.21172111  0.57991927  1
  Al  Al11  1  0.10895121  0.42563385  0.38217608  1
  Al  Al12  1  0.22475723  0.54143943  0.07370564  1
  Al  Al13  1  0.77860157  0.42816928  0.87522593  1
  Al  Al14  1  0.89277459  0.53094485  0.63800859  1
  Al  Al15  1  0.44845554  0.42758023  0.31905313  1
  Al  Al16  1  0.54890580  0.54757698  0.06150177  1
  Al  Al17  1  0.10847792  0.42516024  0.89035780  1
  Al  Al18  1  0.22496900  0.54165168  0.56466321  1
  Al  Al19  1  0.78500917  0.42081902  0.39287838  1
  Al  Al20  1  0.88560136  0.53759235  0.13692674  1
  Al  Al21  1  0.43946751  0.43588333  0.81686382  1
  Al  Al22  1  0.55492384  0.53740316  0.57861197  1
  Al  Al23  1  0.11089464  0.76514078  0.31905311  1
  Al  Al24  1  0.23089429  0.86558559  0.06150149  1
  Al  Al25  1  0.77175764  0.75476460  0.88213588  1
  Al  Al26  1  0.89503857  0.87351444  0.57991979  1
  Al  Al27  1  0.44227376  0.75896123  0.32140260  1
  Al  Al28  1  0.55822364  0.87490583  0.13206985  1
  Al  Al29  1  0.11919731  0.75615379  0.81686481  1
  Al  Al30  1  0.22071976  0.87160467  0.57861319  1
  Al  Al31  1  0.77458706  0.75872934  0.39103973  1
  Al  Al32  1  0.89535904  0.86981494  0.06448474  1
  Al  Al33  1  0.55489399  0.87157666  0.64387899  1
  B  B34  1  0.88980444  0.20648857  0.64152613  1
  B  B35  1  0.44033551  0.75701781  0.81054925  1
  N  N36  1  0.22199034  0.20255769  0.32690333  1
  N  N37  1  0.10734347  0.09757787  0.06811535  1
  N  N38  1  0.89042315  0.20711010  0.80379806  1
  N  N39  1  0.79315768  0.10983870  0.59042145  1
  N  N40  1  0.55425871  0.21101084  0.38225776  1
  N  N41  1  0.43957122  0.09345983  0.07413763  1
  N  N42  1  0.21946644  0.20893766  0.82428657  1
  N  N43  1  0.08355651  0.11070807  0.58689705  1
  N  N44  1  0.89020826  0.20689750  0.32106987  1
  N  N45  1  0.78135333  0.09803698  0.07174247  1
  N  N46  1  0.55062465  0.21180793  0.86688834  1
  N  N47  1  0.43963451  0.09096420  0.58403674  1
  N  N48  1  0.22556966  0.54225128  0.37309861  1
  N  N49  1  0.10808296  0.42476784  0.08235665  1
  N  N50  1  0.89225069  0.53615422  0.82428690  1
  N  N51  1  0.79402797  0.40023898  0.58689613  1
  N  N52  1  0.55316206  0.54270566  0.38690992  1
  N  N53  1  0.44771033  0.42881511  0.12909320  1
  N  N54  1  0.22443245  0.54111369  0.88269745  1
  N  N55  1  0.10904870  0.42573519  0.57350550  1
  N  N56  1  0.88587138  0.53867783  0.32690284  1
  N  N57  1  0.78089809  0.42402732  0.06811513  1
  N  N58  1  0.53925499  0.56694405  0.86781053  1
  N  N59  1  0.44009801  0.43088980  0.63126243  1
  N  N60  1  0.22602146  0.86984725  0.38690956  1
  N  N61  1  0.11213469  0.76438930  0.12909266  1
  N  N62  1  0.89512324  0.86731243  0.86688773  1
  N  N63  1  0.77427761  0.75632080  0.58403605  1
  N  N64  1  0.55840649  0.87509436  0.33058956  1
  N  N65  1  0.44174610  0.75842462  0.13257978  1
  N  N66  1  0.25026020  0.85593987  0.86780934  1
  N  N67  1  0.11420946  0.75677602  0.63126319  1
  N  N68  1  0.89432783  0.87094410  0.38225672  1
  N  N69  1  0.77677381  0.75625882  0.07413757  1
  N  N70  1  0.54469910  0.86138486  0.83378215  1
  N  N71  1  0.43840180  0.75508232  0.64831924  1
