# generated using pymatgen
data_Al17BN18
_symmetry_space_group_name_H-M   'P 1'
_cell_length_a   9.30435558
_cell_length_b   9.30435587
_cell_length_c   10.14016184
_cell_angle_alpha   90.04878881
_cell_angle_beta   90.04879306
_cell_angle_gamma   60.17780310
_symmetry_Int_Tables_number   1
_chemical_formula_structural   Al17BN18
_chemical_formula_sum   'Al34 B2 N36'
_cell_volume   761.59352644
_cell_formula_units_Z   2
loop_
 _symmetry_equiv_pos_site_id
 _symmetry_equiv_pos_as_xyz
  1  'x, y, z'
loop_
 _atom_site_type_symbol
 _atom_site_label
 _atom_site_symmetry_multiplicity
 _atom_site_fract_x
 _atom_site_fract_y
 _atom_site_fract_z
 _atom_site_occupancy
  Al  Al0  1  0.10137917  0.10099582  0.39385766  1
  Al  Al1  1  0.21526307  0.20426295  0.13500708  1
  Al  Al2  1  0.77826634  0.09496923  0.81034217  1
  Al  Al3  1  0.44881079  0.09035372  0.31771242  1
  Al  Al4  1  0.55545993  0.20476179  0.06485037  1
  Al  Al5  1  0.11409526  0.09551219  0.87551095  1
  Al  Al6  1  0.21259138  0.21066097  0.63615419  1
  Al  Al7  1  0.77426090  0.09096383  0.31570631  1
  Al  Al8  1  0.89025159  0.20695359  0.13241229  1
  Al  Al9  1  0.45032237  0.08830940  0.81553543  1
  Al  Al10  1  0.56040712  0.20700052  0.56579538  1
  Al  Al11  1  0.10793069  0.42463204  0.38307669  1
  Al  Al12  1  0.22492491  0.54162513  0.07086495  1
  Al  Al13  1  0.77881207  0.43079732  0.87551046  1
  Al  Al14  1  0.89395817  0.52929636  0.63615414  1
  Al  Al15  1  0.44695922  0.42924405  0.31730001  1
  Al  Al16  1  0.54739120  0.54667129  0.06077640  1
  Al  Al17  1  0.10896767  0.42566909  0.88839151  1
  Al  Al18  1  0.22534248  0.54204462  0.56450605  1
  Al  Al19  1  0.78429338  0.41808137  0.39385787  1
  Al  Al20  1  0.88756241  0.53196456  0.13500704  1
  Al  Al21  1  0.44177763  0.43380483  0.81617948  1
  Al  Al22  1  0.55428902  0.53878428  0.58003411  1
  Al  Al23  1  0.11254152  0.76366133  0.31730008  1
  Al  Al24  1  0.22997003  0.86409071  0.06077645  1
  Al  Al25  1  0.77160693  0.76702623  0.81553585  1
  Al  Al26  1  0.89029687  0.87711153  0.56579512  1
  Al  Al27  1  0.44376851  0.76047114  0.32093257  1
  Al  Al28  1  0.55298313  0.86968503  0.06249316  1
  Al  Al29  1  0.11710232  0.75847917  0.81617923  1
  Al  Al30  1  0.22208221  0.87099041  0.58003384  1
  Al  Al31  1  0.77365223  0.76551156  0.31771251  1
  Al  Al32  1  0.88806000  0.87216135  0.06485070  1
  Al  Al33  1  0.55495748  0.87166004  0.57103898  1
  B  B34  1  0.89200957  0.20871229  0.64405685  1
  B  B35  1  0.44373938  0.76044116  0.81334016  1
  N  N36  1  0.21590349  0.20380021  0.32618916  1
  N  N37  1  0.10642883  0.09643314  0.06556460  1
  N  N38  1  0.89487335  0.21157544  0.80584622  1
  N  N39  1  0.78785244  0.10455627  0.62110529  1
  N  N40  1  0.55451383  0.20668013  0.37753900  1
  N  N41  1  0.44836472  0.09024016  0.12448196  1
  N  N42  1  0.21986591  0.21023989  0.82440910  1
  N  N43  1  0.08281159  0.11030336  0.58652387  1
  N  N44  1  0.89042634  0.20712881  0.32093639  1
  N  N45  1  0.77387105  0.09057282  0.12507817  1
  N  N46  1  0.55790104  0.20699044  0.87597644  1
  N  N47  1  0.44980568  0.09332992  0.62486420  1
  N  N48  1  0.22502672  0.54172877  0.37324337  1
  N  N49  1  0.10798748  0.42468815  0.07828607  1
  N  N50  1  0.89353819  0.53656962  0.82440907  1
  N  N51  1  0.79360146  0.39951474  0.58652422  1
  N  N52  1  0.55159362  0.54264887  0.38739832  1
  N  N53  1  0.44747699  0.42761223  0.12763242  1
  N  N54  1  0.22523838  0.54193996  0.88043435  1
  N  N55  1  0.10914281  0.42584552  0.57222312  1
  N  N56  1  0.88709891  0.53260455  0.32618909  1
  N  N57  1  0.77973319  0.42313025  0.06556412  1
  N  N58  1  0.53928862  0.56731559  0.86674953  1
  N  N59  1  0.44278489  0.42692914  0.62985776  1
  N  N60  1  0.22594626  0.86829605  0.38739810  1
  N  N61  1  0.11091054  0.76417742  0.12763247  1
  N  N62  1  0.89028823  0.87460400  0.87597672  1
  N  N63  1  0.77662677  0.76651010  0.62486461  1
  N  N64  1  0.55448734  0.87118903  0.38202161  1
  N  N65  1  0.44406279  0.76076417  0.13275899  1
  N  N66  1  0.25061389  0.85598924  0.86674956  1
  N  N67  1  0.11022595  0.75948741  0.62985746  1
  N  N68  1  0.88997732  0.87121646  0.37753877  1
  N  N69  1  0.77353844  0.76506613  0.12448198  1
  N  N70  1  0.54385858  0.86056110  0.87152994  1
  N  N71  1  0.44547219  0.76217436  0.65002973  1
