# generated using pymatgen
data_Al17BN18
_symmetry_space_group_name_H-M   'P 1'
_cell_length_a   9.31622449
_cell_length_b   9.32533344
_cell_length_c   10.11275109
_cell_angle_alpha   90.06237399
_cell_angle_beta   90.09131681
_cell_angle_gamma   60.15009946
_symmetry_Int_Tables_number   1
_chemical_formula_structural   Al17BN18
_chemical_formula_sum   'Al34 B2 N36'
_cell_volume   762.00632108
_cell_formula_units_Z   2
loop_
 _symmetry_equiv_pos_site_id
 _symmetry_equiv_pos_as_xyz
  1  'x, y, z'
loop_
 _atom_site_type_symbol
 _atom_site_label
 _atom_site_symmetry_multiplicity
 _atom_site_fract_x
 _atom_site_fract_y
 _atom_site_fract_z
 _atom_site_occupancy
  Al  Al0  1  0.09987681  0.10107509  0.39682920  1
  Al  Al1  1  0.22218625  0.20087387  0.13799719  1
  Al  Al2  1  0.78002962  0.09456182  0.81306789  1
  Al  Al3  1  0.44102764  0.09458134  0.36919097  1
  Al  Al4  1  0.55607730  0.20587245  0.06661448  1
  Al  Al5  1  0.11419544  0.09544469  0.87921589  1
  Al  Al6  1  0.21411780  0.21028119  0.63936234  1
  Al  Al7  1  0.77345877  0.09112223  0.31776925  1
  Al  Al8  1  0.89088069  0.20691097  0.13516634  1
  Al  Al9  1  0.44641173  0.09009071  0.84569397  1
  Al  Al10  1  0.56280316  0.20959582  0.57242980  1
  Al  Al11  1  0.10629843  0.42636517  0.38551521  1
  Al  Al12  1  0.22472110  0.54136492  0.07456218  1
  Al  Al13  1  0.77885077  0.43056442  0.87852191  1
  Al  Al14  1  0.89459079  0.52854580  0.63927359  1
  Al  Al15  1  0.44644361  0.42983090  0.31983845  1
  Al  Al16  1  0.54748314  0.54650271  0.06394291  1
  Al  Al17  1  0.10896341  0.42551806  0.89238488  1
  Al  Al18  1  0.22467938  0.54238190  0.56755262  1
  Al  Al19  1  0.78365547  0.41833818  0.39646508  1
  Al  Al20  1  0.88803419  0.53132197  0.13776716  1
  Al  Al21  1  0.44147138  0.43524166  0.81893422  1
  Al  Al22  1  0.55413961  0.53888725  0.58254202  1
  Al  Al23  1  0.11190972  0.76409829  0.32017902  1
  Al  Al24  1  0.22978022  0.86463268  0.06430445  1
  Al  Al25  1  0.77308566  0.76591213  0.81870124  1
  Al  Al26  1  0.89041901  0.87697891  0.56860201  1
  Al  Al27  1  0.44333396  0.76026718  0.32370384  1
  Al  Al28  1  0.55365387  0.86749573  0.06485685  1
  Al  Al29  1  0.11727140  0.75838472  0.81965788  1
  Al  Al30  1  0.22162677  0.87138750  0.58341791  1
  Al  Al31  1  0.77275440  0.76603069  0.31987983  1
  Al  Al32  1  0.88764312  0.87238736  0.06805548  1
  Al  Al33  1  0.55680059  0.86726982  0.57868674  1
  B  B34  1  0.89334351  0.20849350  0.64724275  1
  B  B35  1  0.44488143  0.75907721  0.81583498  1
  N  N36  1  0.21719159  0.20332120  0.32989462  1
  N  N37  1  0.10694791  0.09664946  0.06980581  1
  N  N38  1  0.89586742  0.21150220  0.80915336  1
  N  N39  1  0.78974661  0.10380298  0.62400365  1
  N  N40  1  0.55605047  0.20926057  0.38199626  1
  N  N41  1  0.44340027  0.09264218  0.09533861  1
  N  N42  1  0.21958542  0.21047520  0.82606168  1
  N  N43  1  0.08297511  0.11069357  0.58965298  1
  N  N44  1  0.88971478  0.20742171  0.32402127  1
  N  N45  1  0.77396270  0.09089404  0.12747125  1
  N  N46  1  0.56053799  0.20965509  0.87526925  1
  N  N47  1  0.44503884  0.09555838  0.60846187  1
  N  N48  1  0.22440359  0.54204803  0.37572689  1
  N  N49  1  0.10854668  0.42394745  0.08286239  1
  N  N50  1  0.89408713  0.53577064  0.82799577  1
  N  N51  1  0.79349383  0.39958019  0.58966415  1
  N  N52  1  0.55114300  0.54270851  0.38991411  1
  N  N53  1  0.44759436  0.42783068  0.13037964  1
  N  N54  1  0.22504241  0.54166909  0.88347017  1
  N  N55  1  0.10903052  0.42596712  0.57513417  1
  N  N56  1  0.88620191  0.53296516  0.32929417  1
  N  N57  1  0.77961775  0.42306409  0.06886873  1
  N  N58  1  0.53943581  0.56703299  0.86970642  1
  N  N59  1  0.44189215  0.42883821  0.63275274  1
  N  N60  1  0.22538208  0.86885500  0.39014096  1
  N  N61  1  0.11078495  0.76428518  0.13037275  1
  N  N62  1  0.89023169  0.87461055  0.87890072  1
  N  N63  1  0.77828826  0.76563471  0.62847085  1
  N  N64  1  0.55632649  0.86637927  0.38716389  1
  N  N65  1  0.44418499  0.76021714  0.13573875  1
  N  N66  1  0.25065277  0.85610804  0.86979028  1
  N  N67  1  0.11015864  0.75965786  0.63267665  1
  N  N68  1  0.88902002  0.87161783  0.37995568  1
  N  N69  1  0.77373526  0.76452557  0.12701940  1
  N  N70  1  0.54598854  0.85561613  0.87141527  1
  N  N71  1  0.44491553  0.76086856  0.65310408  1
