# generated using pymatgen
data_Al17BN18
_symmetry_space_group_name_H-M   'P 1'
_cell_length_a   9.30435564
_cell_length_b   9.30435511
_cell_length_c   10.14015928
_cell_angle_alpha   90.04880090
_cell_angle_beta   90.04881861
_cell_angle_gamma   60.17780772
_symmetry_Int_Tables_number   1
_chemical_formula_structural   Al17BN18
_chemical_formula_sum   'Al34 B2 N36'
_cell_volume   761.59331177
_cell_formula_units_Z   2
loop_
 _symmetry_equiv_pos_site_id
 _symmetry_equiv_pos_as_xyz
  1  'x, y, z'
loop_
 _atom_site_type_symbol
 _atom_site_label
 _atom_site_symmetry_multiplicity
 _atom_site_fract_x
 _atom_site_fract_y
 _atom_site_fract_z
 _atom_site_occupancy
  Al  Al0  1  0.10331583  0.10255435  0.39546010  1
  Al  Al1  1  0.22074279  0.20298631  0.13893682  1
  Al  Al2  1  0.77832765  0.09498980  0.88520244  1
  Al  Al3  1  0.44522355  0.09448721  0.39139094  1
  Al  Al4  1  0.55963122  0.20113660  0.13852476  1
  Al  Al5  1  0.11120283  0.09565868  0.87620697  1
  Al  Al6  1  0.21618102  0.20817001  0.64005880  1
  Al  Al7  1  0.78030097  0.09696266  0.39374577  1
  Al  Al8  1  0.88951502  0.20617786  0.13530854  1
  Al  Al9  1  0.44298703  0.08953730  0.89044311  1
  Al  Al10  1  0.56167717  0.19962432  0.64070648  1
  Al  Al11  1  0.10835872  0.42502078  0.38537243  1
  Al  Al12  1  0.22535447  0.54201594  0.07316631  1
  Al  Al13  1  0.77899861  0.42786378  0.87620709  1
  Al  Al14  1  0.89150760  0.53284362  0.64005879  1
  Al  Al15  1  0.44572346  0.43468122  0.32123333  1
  Al  Al16  1  0.54899102  0.54856677  0.06237991  1
  Al  Al17  1  0.10794279  0.42460518  0.89173554  1
  Al  Al18  1  0.22431605  0.54097857  0.56784358  1
  Al  Al19  1  0.78589410  0.41997699  0.39546031  1
  Al  Al20  1  0.88632429  0.53740652  0.13893720  1
  Al  Al21  1  0.43932557  0.43735518  0.82008561  1
  Al  Al22  1  0.55447472  0.53584997  0.58073070  1
  Al  Al23  1  0.11802014  0.76238484  0.32123280  1
  Al  Al24  1  0.23190509  0.86565118  0.06237974  1
  Al  Al25  1  0.77287444  0.75964965  0.89044349  1
  Al  Al26  1  0.88295939  0.87834089  0.64070664  1
  Al  Al27  1  0.44303148  0.75969282  0.32382836  1
  Al  Al28  1  0.55902076  0.87568485  0.14053638  1
  Al  Al29  1  0.12069207  0.75598734  0.82008526  1
  Al  Al30  1  0.21918706  0.87113606  0.58073099  1
  Al  Al31  1  0.77782450  0.76188681  0.39139078  1
  Al  Al32  1  0.88447288  0.87629517  0.13852509  1
  Al  Al33  1  0.55501647  0.87167911  0.64589265  1
  B  B34  1  0.88954574  0.20620789  0.64289824  1
  B  B35  1  0.44127560  0.75793760  0.81218068  1
  N  N36  1  0.22237429  0.20246875  0.32860480  1
  N  N37  1  0.10733721  0.09835178  0.06884118  1
  N  N38  1  0.88781321  0.20447467  0.80620962  1
  N  N39  1  0.78942490  0.10608832  0.58470928  1
  N  N40  1  0.55974601  0.20158015  0.33175621  1
  N  N41  1  0.44330655  0.09543092  0.07869961  1
  N  N42  1  0.22305762  0.20716288  0.82638130  1
  N  N43  1  0.08267031  0.11065911  0.58948812  1
  N  N44  1  0.88922174  0.20588331  0.32348020  1
  N  N45  1  0.77879672  0.09546041  0.07421817  1
  N  N46  1  0.55665749  0.20014072  0.83137691  1
  N  N47  1  0.44299559  0.09204654  0.58026387  1
  N  N48  1  0.22529639  0.54195803  0.37794984  1
  N  N49  1  0.10825750  0.42491983  0.08299689  1
  N  N50  1  0.89050066  0.53972046  0.82638127  1
  N  N51  1  0.79399754  0.39933246  0.58948832  1
  N  N52  1  0.55355204  0.54351615  0.39067607  1
  N  N53  1  0.44618688  0.43404297  0.13005037  1
  N  N54  1  0.22414223  0.54080418  0.88401925  1
  N  N55  1  0.10804543  0.42470792  0.57580224  1
  N  N56  1  0.88580662  0.53903722  0.32860502  1
  N  N57  1  0.78169103  0.42399965  0.06884130  1
  N  N58  1  0.53968516  0.56713436  0.86971365  1
  N  N59  1  0.43974473  0.43008032  0.63183002  1
  N  N60  1  0.22685494  0.87021275  0.39067624  1
  N  N61  1  0.11737985  0.76284877  0.13005001  1
  N  N62  1  0.88347770  0.87331997  0.83137703  1
  N  N63  1  0.77538331  0.75965826  0.58026370  1
  N  N64  1  0.55941175  0.87607462  0.33116424  1
  N  N65  1  0.44285679  0.75951876  0.13530347  1
  N  N66  1  0.25047248  0.85634594  0.86971345  1
  N  N67  1  0.11341581  0.75640758  0.63182979  1
  N  N68  1  0.88491874  0.87640804  0.33175632  1
  N  N69  1  0.77876726  0.75997037  0.07869997  1
  N  N70  1  0.54543100  0.86209374  0.83513014  1
  N  N71  1  0.43841032  0.75507297  0.65039175  1
