# generated using pymatgen
data_Al17BN18
_symmetry_space_group_name_H-M   'P 1'
_cell_length_a   9.31558911
_cell_length_b   9.31042951
_cell_length_c   9.99507835
_cell_angle_alpha   89.77623421
_cell_angle_beta   90.04487261
_cell_angle_gamma   60.02249621
_symmetry_Int_Tables_number   1
_chemical_formula_structural   Al17BN18
_chemical_formula_sum   'Al34 B2 N36'
_cell_volume   750.91331157
_cell_formula_units_Z   2
loop_
 _symmetry_equiv_pos_site_id
 _symmetry_equiv_pos_as_xyz
  1  'x, y, z'
loop_
 _atom_site_type_symbol
 _atom_site_label
 _atom_site_symmetry_multiplicity
 _atom_site_fract_x
 _atom_site_fract_y
 _atom_site_fract_z
 _atom_site_occupancy
  Al  Al0  1  0.11327313  0.09184571  0.30682232  1
  Al  Al1  1  0.22309297  0.20476645  0.05777138  1
  Al  Al2  1  0.78035611  0.09657990  0.81152168  1
  Al  Al3  1  0.44488289  0.09332547  0.30992280  1
  Al  Al4  1  0.55508910  0.20502611  0.05765219  1
  Al  Al5  1  0.11187334  0.09336849  0.81184437  1
  Al  Al6  1  0.21585065  0.20795408  0.55878581  1
  Al  Al7  1  0.77749390  0.09331437  0.30633196  1
  Al  Al8  1  0.89028586  0.20198900  0.07422550  1
  Al  Al9  1  0.44321418  0.09051104  0.80806528  1
  Al  Al10  1  0.55967340  0.20841083  0.55947366  1
  Al  Al11  1  0.11108841  0.42686136  0.30961912  1
  Al  Al12  1  0.22172687  0.53921783  0.06029508  1
  Al  Al13  1  0.77532052  0.42943459  0.85051542  1
  Al  Al14  1  0.89195180  0.53354085  0.56333242  1
  Al  Al15  1  0.44587007  0.42792196  0.31015149  1
  Al  Al16  1  0.54709230  0.54729816  0.05684383  1
  Al  Al17  1  0.11275199  0.42809004  0.80820429  1
  Al  Al18  1  0.22237001  0.53965905  0.55736005  1
  Al  Al19  1  0.77885103  0.42290417  0.33751505  1
  Al  Al20  1  0.89001367  0.54147388  0.06001983  1
  Al  Al21  1  0.44156563  0.43336475  0.80884119  1
  Al  Al22  1  0.55822522  0.53563660  0.57089191  1
  Al  Al23  1  0.11124349  0.76331939  0.30916969  1
  Al  Al24  1  0.22791787  0.86962495  0.05344271  1
  Al  Al25  1  0.77314851  0.76077856  0.80751013  1
  Al  Al26  1  0.89118275  0.87727572  0.55891875  1
  Al  Al27  1  0.44409779  0.76100553  0.31237738  1
  Al  Al28  1  0.55270200  0.86929323  0.05610904  1
  Al  Al29  1  0.11613956  0.75931940  0.80860006  1
  Al  Al30  1  0.21728907  0.87646567  0.56534516  1
  Al  Al31  1  0.77624270  0.76152379  0.31062467  1
  Al  Al32  1  0.88792632  0.87184952  0.05704216  1
  Al  Al33  1  0.55386945  0.87175378  0.56404085  1
  B  B34  1  0.88794585  0.20874088  0.59687888  1
  B  B35  1  0.44304306  0.76223991  0.80486490  1
  N  N36  1  0.22249696  0.20433684  0.36921928  1
  N  N37  1  0.11906070  0.08835058  0.11490696  1
  N  N38  1  0.89340974  0.19906860  0.87775574  1
  N  N39  1  0.79262975  0.10993469  0.61669820  1
  N  N40  1  0.55621979  0.20487717  0.36951253  1
  N  N41  1  0.44535718  0.09240798  0.11717523  1
  N  N42  1  0.22226338  0.20596685  0.86683572  1
  N  N43  1  0.08160747  0.11006054  0.61779171  1
  N  N44  1  0.89144385  0.20115041  0.33949620  1
  N  N45  1  0.77425544  0.09029369  0.11605064  1
  N  N46  1  0.55552780  0.20582846  0.86587165  1
  N  N47  1  0.44384766  0.09576118  0.61805899  1
  N  N48  1  0.22233325  0.53922969  0.36711004  1
  N  N49  1  0.11155035  0.42681739  0.11938604  1
  N  N50  1  0.89268719  0.54128241  0.86729732  1
  N  N51  1  0.79381946  0.39727156  0.60542659  1
  N  N52  1  0.55277481  0.54131245  0.37727564  1
  N  N53  1  0.44486605  0.42800119  0.11817774  1
  N  N54  1  0.22219382  0.53883712  0.87026131  1
  N  N55  1  0.11321961  0.42790971  0.61875846  1
  N  N56  1  0.88963622  0.53941434  0.37119747  1
  N  N57  1  0.77247417  0.43253753  0.09175583  1
  N  N58  1  0.53844866  0.56660645  0.86023100  1
  N  N59  1  0.44260176  0.42802521  0.62021831  1
  N  N60  1  0.22400573  0.87168639  0.37470659  1
  N  N61  1  0.11150641  0.76304776  0.11639877  1
  N  N62  1  0.88866787  0.87178533  0.86542567  1
  N  N63  1  0.77824298  0.76203258  0.61803419  1
  N  N64  1  0.55472599  0.87122984  0.37288252  1
  N  N65  1  0.44300893  0.76177904  0.12370913  1
  N  N66  1  0.24682110  0.86073056  0.85892335  1
  N  N67  1  0.11129777  0.76019832  0.61932861  1
  N  N68  1  0.88875788  0.87180909  0.36919986  1
  N  N69  1  0.77559859  0.76238849  0.11835741  1
  N  N70  1  0.54304710  0.85958479  0.86187392  1
  N  N71  1  0.44325954  0.76262532  0.63969340  1
