# generated using pymatgen
data_Al17BN18
_symmetry_space_group_name_H-M   'P 1'
_cell_length_a   9.32055304
_cell_length_b   9.32919975
_cell_length_c   10.06343132
_cell_angle_alpha   90.01115199
_cell_angle_beta   90.03307222
_cell_angle_gamma   60.18800386
_symmetry_Int_Tables_number   1
_chemical_formula_structural   Al17BN18
_chemical_formula_sum   'Al34 B2 N36'
_cell_volume   759.24572387
_cell_formula_units_Z   2
loop_
 _symmetry_equiv_pos_site_id
 _symmetry_equiv_pos_as_xyz
  1  'x, y, z'
loop_
 _atom_site_type_symbol
 _atom_site_label
 _atom_site_symmetry_multiplicity
 _atom_site_fract_x
 _atom_site_fract_y
 _atom_site_fract_z
 _atom_site_occupancy
  Al  Al0  1  0.09833386  0.09745223  0.38394523  1
  Al  Al1  1  0.22425141  0.20633168  0.05470513  1
  Al  Al2  1  0.77781128  0.09514408  0.80213440  1
  Al  Al3  1  0.44158394  0.09333182  0.30862424  1
  Al  Al4  1  0.55587860  0.20483911  0.05699281  1
  Al  Al5  1  0.11316685  0.09252820  0.86067619  1
  Al  Al6  1  0.22136170  0.20958812  0.56375898  1
  Al  Al7  1  0.77313846  0.09133795  0.30728964  1
  Al  Al8  1  0.89172498  0.20640198  0.12383014  1
  Al  Al9  1  0.44603909  0.09033738  0.80596148  1
  Al  Al10  1  0.56080539  0.20721181  0.55739030  1
  Al  Al11  1  0.11473467  0.42353509  0.31042675  1
  Al  Al12  1  0.22202195  0.53835337  0.05976616  1
  Al  Al13  1  0.77861560  0.43089238  0.86575798  1
  Al  Al14  1  0.88798824  0.53360264  0.62177515  1
  Al  Al15  1  0.44673066  0.42884141  0.30913052  1
  Al  Al16  1  0.54647364  0.54632371  0.05213494  1
  Al  Al17  1  0.11883248  0.42720177  0.80820393  1
  Al  Al18  1  0.22275228  0.53961411  0.55529064  1
  Al  Al19  1  0.78465037  0.41878280  0.38531516  1
  Al  Al20  1  0.88421480  0.53571653  0.11459312  1
  Al  Al21  1  0.44296881  0.43333928  0.80778895  1
  Al  Al22  1  0.55358389  0.53847366  0.57124699  1
  Al  Al23  1  0.11213105  0.76189442  0.30881323  1
  Al  Al24  1  0.22908445  0.86337185  0.05241639  1
  Al  Al25  1  0.77026692  0.76812041  0.80853889  1
  Al  Al26  1  0.89041880  0.87746318  0.55694203  1
  Al  Al27  1  0.44384901  0.76002771  0.31214610  1
  Al  Al28  1  0.55132546  0.87023741  0.05424257  1
  Al  Al29  1  0.11665907  0.75832810  0.80749544  1
  Al  Al30  1  0.22177694  0.87032460  0.57279123  1
  Al  Al31  1  0.77304802  0.76491453  0.31045917  1
  Al  Al32  1  0.88835827  0.87297372  0.05632395  1
  Al  Al33  1  0.55407818  0.87240840  0.56230877  1
  B  B34  1  0.89314670  0.20817407  0.63643060  1
  B  B35  1  0.44395609  0.76014072  0.80343411  1
  N  N36  1  0.22303521  0.20494815  0.37167421  1
  N  N37  1  0.10468596  0.09293352  0.05737215  1
  N  N38  1  0.89410295  0.21221200  0.79722743  1
  N  N39  1  0.78770725  0.10429642  0.61181529  1
  N  N40  1  0.55366860  0.20607454  0.36770891  1
  N  N41  1  0.44357656  0.09243612  0.11708849  1
  N  N42  1  0.22856063  0.20896073  0.86349707  1
  N  N43  1  0.08269079  0.10869983  0.58170063  1
  N  N44  1  0.88946903  0.20800797  0.31274154  1
  N  N45  1  0.77383560  0.09089293  0.11598384  1
  N  N46  1  0.55808911  0.20657023  0.86663020  1
  N  N47  1  0.44680825  0.09484154  0.61783417  1
  N  N48  1  0.22279266  0.53881187  0.36629211  1
  N  N49  1  0.11559613  0.42333721  0.11773361  1
  N  N50  1  0.88968793  0.54066599  0.82341399  1
  N  N51  1  0.79346452  0.39904259  0.57890011  1
  N  N52  1  0.55138000  0.54214805  0.37787750  1
  N  N53  1  0.44600477  0.42796988  0.11765729  1
  N  N54  1  0.22360850  0.53996706  0.87133159  1
  N  N55  1  0.11768603  0.42752547  0.61727194  1
  N  N56  1  0.88502835  0.53642017  0.32793432  1
  N  N57  1  0.77890549  0.42205069  0.05705914  1
  N  N58  1  0.53891478  0.56728499  0.85717776  1
  N  N59  1  0.44261092  0.42706080  0.62009587  1
  N  N60  1  0.22541532  0.86681827  0.37762484  1
  N  N61  1  0.11135333  0.76143514  0.11756976  1
  N  N62  1  0.89037764  0.87526031  0.86664293  1
  N  N63  1  0.77524614  0.76845166  0.61607354  1
  N  N64  1  0.55276888  0.87259871  0.37213396  1
  N  N65  1  0.44384601  0.76007211  0.12319817  1
  N  N66  1  0.25096933  0.85460624  0.85594502  1
  N  N67  1  0.11025767  0.75855076  0.61994211  1
  N  N68  1  0.88949205  0.87176785  0.36772175  1
  N  N69  1  0.77243535  0.76633651  0.11467764  1
  N  N70  1  0.54240922  0.86163351  0.86208578  1
  N  N71  1  0.44608233  0.76161451  0.64007141  1
