# generated using pymatgen
data_Al17BN18
_symmetry_space_group_name_H-M   'P 1'
_cell_length_a   9.32542045
_cell_length_b   9.32741019
_cell_length_c   10.02354718
_cell_angle_alpha   89.86141839
_cell_angle_beta   89.74396524
_cell_angle_gamma   60.08646026
_symmetry_Int_Tables_number   1
_chemical_formula_structural   Al17BN18
_chemical_formula_sum   'Al34 B2 N36'
_cell_volume   755.70958973
_cell_formula_units_Z   2
loop_
 _symmetry_equiv_pos_site_id
 _symmetry_equiv_pos_as_xyz
  1  'x, y, z'
loop_
 _atom_site_type_symbol
 _atom_site_label
 _atom_site_symmetry_multiplicity
 _atom_site_fract_x
 _atom_site_fract_y
 _atom_site_fract_z
 _atom_site_occupancy
  Al  Al0  1  0.10155113  0.10509680  0.40100730  1
  Al  Al1  1  0.22175235  0.20409716  0.14826193  1
  Al  Al2  1  0.77836968  0.09629351  0.89379137  1
  Al  Al3  1  0.44529004  0.09414074  0.40247078  1
  Al  Al4  1  0.55695113  0.20409153  0.14808305  1
  Al  Al5  1  0.11257576  0.09575736  0.88652303  1
  Al  Al6  1  0.21691073  0.20790681  0.64911930  1
  Al  Al7  1  0.78040120  0.09698077  0.40204219  1
  Al  Al8  1  0.89022877  0.20423406  0.14544777  1
  Al  Al9  1  0.44199860  0.09028331  0.89857374  1
  Al  Al10  1  0.55974925  0.20625836  0.65075415  1
  Al  Al11  1  0.11110290  0.42817885  0.39824919  1
  Al  Al12  1  0.22186215  0.53967803  0.14816530  1
  Al  Al13  1  0.77325611  0.43339731  0.89065701  1
  Al  Al14  1  0.89081449  0.53397563  0.64947428  1
  Al  Al15  1  0.44309599  0.42403233  0.39749531  1
  Al  Al16  1  0.55821791  0.53675048  0.13684142  1
  Al  Al17  1  0.11094058  0.42722640  0.90031265  1
  Al  Al18  1  0.22132598  0.53742449  0.64982469  1
  Al  Al19  1  0.78562313  0.41989640  0.40101046  1
  Al  Al20  1  0.88828725  0.53858436  0.14855002  1
  Al  Al21  1  0.44222778  0.43487974  0.89778344  1
  Al  Al22  1  0.55782728  0.53706504  0.60848533  1
  Al  Al23  1  0.10634152  0.75933461  0.39797902  1
  Al  Al24  1  0.23296684  0.86832292  0.08572159  1
  Al  Al25  1  0.77306819  0.75850968  0.89900603  1
  Al  Al26  1  0.88896459  0.87673901  0.65065649  1
  Al  Al27  1  0.44194643  0.76324476  0.35602673  1
  Al  Al28  1  0.55846576  0.87499319  0.15394266  1
  Al  Al29  1  0.11447571  0.75609715  0.89431991  1
  Al  Al30  1  0.22018336  0.87460595  0.58459803  1
  Al  Al31  1  0.77722104  0.76209634  0.40251160  1
  Al  Al32  1  0.88901240  0.87356105  0.14789376  1
  Al  Al33  1  0.55274932  0.86926044  0.64867555  1
  B  B34  1  0.88937606  0.20632953  0.65256265  1
  B  B35  1  0.44576061  0.75764926  0.85876161  1
  N  N36  1  0.22236342  0.20526745  0.34008056  1
  N  N37  1  0.10780992  0.09941289  0.08052633  1
  N  N38  1  0.88728678  0.20709173  0.81787329  1
  N  N39  1  0.79011208  0.10705023  0.59589686  1
  N  N40  1  0.55778180  0.20316750  0.33984515  1
  N  N41  1  0.44444673  0.09364170  0.08825938  1
  N  N42  1  0.22284142  0.20765237  0.83733763  1
  N  N43  1  0.08272487  0.11223685  0.59943339  1
  N  N44  1  0.88878035  0.20566565  0.33324900  1
  N  N45  1  0.77864039  0.09514147  0.08485927  1
  N  N46  1  0.55454466  0.20643215  0.84033140  1
  N  N47  1  0.44446887  0.09432590  0.59346863  1
  N  N48  1  0.22198165  0.53909187  0.33751032  1
  N  N49  1  0.11130223  0.42735683  0.09020190  1
  N  N50  1  0.89074418  0.53868658  0.83833279  1
  N  N51  1  0.79304777  0.40141860  0.59665939  1
  N  N52  1  0.56220140  0.53018964  0.35856011  1
  N  N53  1  0.44418254  0.42646126  0.08914437  1
  N  N54  1  0.22240294  0.53652734  0.83858184  1
  N  N55  1  0.11098509  0.42762445  0.58762837  1
  N  N56  1  0.88838374  0.53912640  0.34042678  1
  N  N57  1  0.78091943  0.42509008  0.08352309  1
  N  N58  1  0.53981023  0.57088798  0.85903276  1
  N  N59  1  0.44135937  0.42482004  0.58909187  1
  N  N60  1  0.21474559  0.87903190  0.38490150  1
  N  N61  1  0.10933715  0.75987904  0.08661786  1
  N  N62  1  0.88752669  0.87226250  0.83993814  1
  N  N63  1  0.77753345  0.76121218  0.59341957  1
  N  N64  1  0.56092223  0.87769155  0.34336563  1
  N  N65  1  0.44196988  0.76213183  0.15032649  1
  N  N66  1  0.25723238  0.85465751  0.87945549  1
  N  N67  1  0.10725028  0.75654416  0.59225998  1
  N  N68  1  0.88669898  0.87441243  0.33967222  1
  N  N69  1  0.77754062  0.76108251  0.08865962  1
  N  N70  1  0.54121238  0.85750900  0.84424340  1
  N  N71  1  0.44694973  0.76098909  0.59131188  1
