# generated using pymatgen
data_Al17BN18
_symmetry_space_group_name_H-M   'P 1'
_cell_length_a   9.32337014
_cell_length_b   9.32810772
_cell_length_c   10.04406170
_cell_angle_alpha   89.99933910
_cell_angle_beta   90.00796897
_cell_angle_gamma   60.14953072
_symmetry_Int_Tables_number   1
_chemical_formula_structural   Al17BN18
_chemical_formula_sum   'Al34 B2 N36'
_cell_volume   757.63300960
_cell_formula_units_Z   2
loop_
 _symmetry_equiv_pos_site_id
 _symmetry_equiv_pos_as_xyz
  1  'x, y, z'
loop_
 _atom_site_type_symbol
 _atom_site_label
 _atom_site_symmetry_multiplicity
 _atom_site_fract_x
 _atom_site_fract_y
 _atom_site_fract_z
 _atom_site_occupancy
  Al  Al0  1  0.09873107  0.09756549  0.38389116  1
  Al  Al1  1  0.22411303  0.20636854  0.05553588  1
  Al  Al2  1  0.77788746  0.09467172  0.80248041  1
  Al  Al3  1  0.44179950  0.09323405  0.30911604  1
  Al  Al4  1  0.55604831  0.20486579  0.05710617  1
  Al  Al5  1  0.11355906  0.09251783  0.86084406  1
  Al  Al6  1  0.22132978  0.20956879  0.56435312  1
  Al  Al7  1  0.77317747  0.09083743  0.30748141  1
  Al  Al8  1  0.89142330  0.20726890  0.12402138  1
  Al  Al9  1  0.44612652  0.09027943  0.80644822  1
  Al  Al10  1  0.56086300  0.20712955  0.55749603  1
  Al  Al11  1  0.10998142  0.42591096  0.31070415  1
  Al  Al12  1  0.22216486  0.53829889  0.06043094  1
  Al  Al13  1  0.77671265  0.42996165  0.86220067  1
  Al  Al14  1  0.89107081  0.53637960  0.58204971  1
  Al  Al15  1  0.44612405  0.42874299  0.30931715  1
  Al  Al16  1  0.54661584  0.54601713  0.05250686  1
  Al  Al17  1  0.11585390  0.42884794  0.80804367  1
  Al  Al18  1  0.22282809  0.53952652  0.55551184  1
  Al  Al19  1  0.78287135  0.41746005  0.38493236  1
  Al  Al20  1  0.88917178  0.53955932  0.06575429  1
  Al  Al21  1  0.44236341  0.43325317  0.80802678  1
  Al  Al22  1  0.55338811  0.53838270  0.57222554  1
  Al  Al23  1  0.11202683  0.76181540  0.30920502  1
  Al  Al24  1  0.22899806  0.86347363  0.05258998  1
  Al  Al25  1  0.77207670  0.76512315  0.80813479  1
  Al  Al26  1  0.89038793  0.87762100  0.55720325  1
  Al  Al27  1  0.44390416  0.76016083  0.31228775  1
  Al  Al28  1  0.55146645  0.86990320  0.05490402  1
  Al  Al29  1  0.11656997  0.75827257  0.80794615  1
  Al  Al30  1  0.22160892  0.87049764  0.57291183  1
  Al  Al31  1  0.77574177  0.75976581  0.31028207  1
  Al  Al32  1  0.88833012  0.87321944  0.05700102  1
  Al  Al33  1  0.55423996  0.87216050  0.56264185  1
  B  B34  1  0.89285415  0.20860210  0.63707860  1
  B  B35  1  0.44377778  0.76031392  0.80336335  1
  N  N36  1  0.22287134  0.20558912  0.37159314  1
  N  N37  1  0.10470694  0.09307305  0.05781260  1
  N  N38  1  0.89474078  0.21120959  0.79745794  1
  N  N39  1  0.78749400  0.10398718  0.61195812  1
  N  N40  1  0.55378085  0.20605256  0.36779147  1
  N  N41  1  0.44375235  0.09244501  0.11722075  1
  N  N42  1  0.22834501  0.20955880  0.86371053  1
  N  N43  1  0.08259438  0.10898912  0.58185993  1
  N  N44  1  0.88963608  0.20781371  0.31301452  1
  N  N45  1  0.77383913  0.09082688  0.11619915  1
  N  N46  1  0.55814016  0.20659375  0.86666107  1
  N  N47  1  0.44690316  0.09478081  0.61790639  1
  N  N48  1  0.22254760  0.53842211  0.36617445  1
  N  N49  1  0.11161070  0.42527672  0.11938301  1
  N  N50  1  0.89275934  0.54337903  0.85443149  1
  N  N51  1  0.79216866  0.39862671  0.58229529  1
  N  N52  1  0.55105176  0.54201140  0.37787295  1
  N  N53  1  0.44555614  0.42788899  0.11773350  1
  N  N54  1  0.22356363  0.53968128  0.87158820  1
  N  N55  1  0.11570769  0.42855026  0.61983227  1
  N  N56  1  0.88882865  0.53947812  0.36538489  1
  N  N57  1  0.77702910  0.42111958  0.05779656  1
  N  N58  1  0.53839698  0.56755153  0.85653364  1
  N  N59  1  0.44213754  0.42696358  0.62009857  1
  N  N60  1  0.22539626  0.86685998  0.37760305  1
  N  N61  1  0.11134737  0.76149555  0.11766851  1
  N  N62  1  0.89019749  0.87518779  0.86695129  1
  N  N63  1  0.77632495  0.76635634  0.61866847  1
  N  N64  1  0.55371479  0.87194920  0.37203276  1
  N  N65  1  0.44355447  0.76014768  0.12320144  1
  N  N66  1  0.25094168  0.85467690  0.85590081  1
  N  N67  1  0.11021332  0.75853304  0.61999858  1
  N  N68  1  0.88917250  0.87144730  0.36768821  1
  N  N69  1  0.77440777  0.76254801  0.11661134  1
  N  N70  1  0.54291764  0.86128731  0.86218923  1
  N  N71  1  0.44578746  0.76192892  0.63993576  1
