# generated using pymatgen
data_Al17BN18
_symmetry_space_group_name_H-M   'P 1'
_cell_length_a   9.36127991
_cell_length_b   9.36127803
_cell_length_c   10.06850872
_cell_angle_alpha   90.13229181
_cell_angle_beta   90.13237153
_cell_angle_gamma   60.12822420
_symmetry_Int_Tables_number   1
_chemical_formula_structural   Al17BN18
_chemical_formula_sum   'Al34 B2 N36'
_cell_volume   765.11074662
_cell_formula_units_Z   2
loop_
 _symmetry_equiv_pos_site_id
 _symmetry_equiv_pos_as_xyz
  1  'x, y, z'
loop_
 _atom_site_type_symbol
 _atom_site_label
 _atom_site_symmetry_multiplicity
 _atom_site_fract_x
 _atom_site_fract_y
 _atom_site_fract_z
 _atom_site_occupancy
  Al  Al0  1  0.10431733  0.10101867  0.39261837  1
  Al  Al1  1  0.22136247  0.20197160  0.13718449  1
  Al  Al2  1  0.78164779  0.09833589  0.86944852  1
  Al  Al3  1  0.44075387  0.09311994  0.39225549  1
  Al  Al4  1  0.55339452  0.21151924  0.06489509  1
  Al  Al5  1  0.11138258  0.09503708  0.87551931  1
  Al  Al6  1  0.21291869  0.21082477  0.63846213  1
  Al  Al7  1  0.78331180  0.09999561  0.38928919  1
  Al  Al8  1  0.88917063  0.20585599  0.13328306  1
  Al  Al9  1  0.43666297  0.09271656  0.87583571  1
  Al  Al10  1  0.55723934  0.21316892  0.58116811  1
  Al  Al11  1  0.10888197  0.42556366  0.38196289  1
  Al  Al12  1  0.22449730  0.54118064  0.07427402  1
  Al  Al13  1  0.77835517  0.42806643  0.87551930  1
  Al  Al14  1  0.89414112  0.52960396  0.63846236  1
  Al  Al15  1  0.44829286  0.42762141  0.31970768  1
  Al  Al16  1  0.54910662  0.54575252  0.06264946  1
  Al  Al17  1  0.10836671  0.42505026  0.89109584  1
  Al  Al18  1  0.22499215  0.54167383  0.56477151  1
  Al  Al19  1  0.78433560  0.42100154  0.39261832  1
  Al  Al20  1  0.88528876  0.53804787  0.13718456  1
  Al  Al21  1  0.43925667  0.43667329  0.81721977  1
  Al  Al22  1  0.55497513  0.53811204  0.57889470  1
  Al  Al23  1  0.11093860  0.76497487  0.31970764  1
  Al  Al24  1  0.22906878  0.86578861  0.06264957  1
  Al  Al25  1  0.77603200  0.75334883  0.87583564  1
  Al  Al26  1  0.89648658  0.87392181  0.58116811  1
  Al  Al27  1  0.44429043  0.76097464  0.32266975  1
  Al  Al28  1  0.55196541  0.86864957  0.08073138  1
  Al  Al29  1  0.11998868  0.75594055  0.81721997  1
  Al  Al30  1  0.22142865  0.87165723  0.57889466  1
  Al  Al31  1  0.77643820  0.75743638  0.39225586  1
  Al  Al32  1  0.89483401  0.87008186  0.06489477  1
  Al  Al33  1  0.55356889  0.87025450  0.61491808  1
  B  B34  1  0.88987878  0.20656245  0.64178297  1
  B  B35  1  0.44168261  0.75836623  0.81293418  1
  N  N36  1  0.22178790  0.20256620  0.32735233  1
  N  N37  1  0.10745407  0.09739448  0.06887398  1
  N  N38  1  0.89051184  0.20719630  0.80419733  1
  N  N39  1  0.79352368  0.11020682  0.59070049  1
  N  N40  1  0.55424551  0.21078891  0.38232240  1
  N  N41  1  0.43846913  0.09572128  0.07326057  1
  N  N42  1  0.21734956  0.20997379  0.82471711  1
  N  N43  1  0.08389732  0.11065262  0.58714379  1
  N  N44  1  0.89009412  0.20677845  0.32143803  1
  N  N45  1  0.78146988  0.09815726  0.07157958  1
  N  N46  1  0.55120932  0.21252757  0.86623360  1
  N  N47  1  0.43794966  0.09750982  0.59005413  1
  N  N48  1  0.22530829  0.54199032  0.37283586  1
  N  N49  1  0.10802262  0.42470585  0.08321862  1
  N  N50  1  0.89329009  0.53403508  0.82471726  1
  N  N51  1  0.79396999  0.40058125  0.58714378  1
  N  N52  1  0.55271649  0.54224699  0.38636297  1
  N  N53  1  0.44743152  0.42855268  0.12918765  1
  N  N54  1  0.22419061  0.54087443  0.88271391  1
  N  N55  1  0.10924897  0.42593272  0.57357077  1
  N  N56  1  0.88588418  0.53847113  0.32735232  1
  N  N57  1  0.78071205  0.42413903  0.06887395  1
  N  N58  1  0.53918833  0.56636918  0.86867517  1
  N  N59  1  0.44002207  0.43246412  0.63123744  1
  N  N60  1  0.22556321  0.86939959  0.38636303  1
  N  N61  1  0.11186803  0.76411504  0.12918758  1
  N  N62  1  0.89584227  0.86789650  0.86623337  1
  N  N63  1  0.78082486  0.75463492  0.59005456  1
  N  N64  1  0.55349232  0.87017437  0.36947526  1
  N  N65  1  0.44247337  0.75915708  0.13292572  1
  N  N66  1  0.24968565  0.85587104  0.86867520  1
  N  N67  1  0.11578142  0.75670386  0.63123762  1
  N  N68  1  0.89410615  0.87092894  0.38232256  1
  N  N69  1  0.77903712  0.75515489  0.07326053  1
  N  N70  1  0.54186640  0.85855112  0.85231787  1
  N  N71  1  0.44037415  0.75705784  0.65100742  1
