# generated using pymatgen
data_Al17BN18
_symmetry_space_group_name_H-M   'P 1'
_cell_length_a   9.32016652
_cell_length_b   9.32006013
_cell_length_c   10.10557510
_cell_angle_alpha   90.16751048
_cell_angle_beta   90.16092047
_cell_angle_gamma   60.33908604
_symmetry_Int_Tables_number   1
_chemical_formula_structural   Al17BN18
_chemical_formula_sum   'Al34 B2 N36'
_cell_volume   762.79083474
_cell_formula_units_Z   2
loop_
 _symmetry_equiv_pos_site_id
 _symmetry_equiv_pos_as_xyz
  1  'x, y, z'
loop_
 _atom_site_type_symbol
 _atom_site_label
 _atom_site_symmetry_multiplicity
 _atom_site_fract_x
 _atom_site_fract_y
 _atom_site_fract_z
 _atom_site_occupancy
  Al  Al0  1  0.10138615  0.10110887  0.38492178  1
  Al  Al1  1  0.21903127  0.19847126  0.12284296  1
  Al  Al2  1  0.77870373  0.09538725  0.80159124  1
  Al  Al3  1  0.44994028  0.08935928  0.30966863  1
  Al  Al4  1  0.55553970  0.20501831  0.05570927  1
  Al  Al5  1  0.11410503  0.09573748  0.86728841  1
  Al  Al6  1  0.21700322  0.20301246  0.62349881  1
  Al  Al7  1  0.77472354  0.09141195  0.30659593  1
  Al  Al8  1  0.89024434  0.20695206  0.12351420  1
  Al  Al9  1  0.45176136  0.08699517  0.80696515  1
  Al  Al10  1  0.56076012  0.20749430  0.55657135  1
  Al  Al11  1  0.11265841  0.42938123  0.31234778  1
  Al  Al12  1  0.22128214  0.53793943  0.05829448  1
  Al  Al13  1  0.77903708  0.43078562  0.86720738  1
  Al  Al14  1  0.88633100  0.53370461  0.62349679  1
  Al  Al15  1  0.44687490  0.42924972  0.30787751  1
  Al  Al16  1  0.54592759  0.54652177  0.05170543  1
  Al  Al17  1  0.11523894  0.43194602  0.81016486  1
  Al  Al18  1  0.22251019  0.53920752  0.55453520  1
  Al  Al19  1  0.78438705  0.41810751  0.38494883  1
  Al  Al20  1  0.88183827  0.53566446  0.12273926  1
  Al  Al21  1  0.44307737  0.43368390  0.80666978  1
  Al  Al22  1  0.55302243  0.53879992  0.57021528  1
  Al  Al23  1  0.11256197  0.76356240  0.30786751  1
  Al  Al24  1  0.22986594  0.86259147  0.05174434  1
  Al  Al25  1  0.77029697  0.76847690  0.80697443  1
  Al  Al26  1  0.89079960  0.87745198  0.55656018  1
  Al  Al27  1  0.44368892  0.76035281  0.31154987  1
  Al  Al28  1  0.55271709  0.86937412  0.05306620  1
  Al  Al29  1  0.11700599  0.75978638  0.80666734  1
  Al  Al30  1  0.22208376  0.86974944  0.57016612  1
  Al  Al31  1  0.77268646  0.76660453  0.30961645  1
  Al  Al32  1  0.88836270  0.87221195  0.05569731  1
  Al  Al33  1  0.55486647  0.87153987  0.56151579  1
  B  B34  1  0.89173976  0.20840927  0.63530658  1
  B  B35  1  0.44377754  0.76050837  0.80388929  1
  N  N36  1  0.21991410  0.19911465  0.32211782  1
  N  N37  1  0.10589564  0.09504356  0.05724368  1
  N  N38  1  0.89537254  0.21201458  0.79717590  1
  N  N39  1  0.78808793  0.10478839  0.61178694  1
  N  N40  1  0.55531715  0.20689211  0.36765966  1
  N  N41  1  0.44979063  0.08902115  0.11500124  1
  N  N42  1  0.22432063  0.20409677  0.81878174  1
  N  N43  1  0.08221987  0.10935592  0.57712999  1
  N  N44  1  0.89088433  0.20760338  0.31203420  1
  N  N45  1  0.77397936  0.09065956  0.11537791  1
  N  N46  1  0.55858773  0.20717972  0.86621839  1
  N  N47  1  0.45171832  0.09215220  0.61506394  1
  N  N48  1  0.22369908  0.54040248  0.36621246  1
  N  N49  1  0.11175580  0.42838614  0.11425348  1
  N  N50  1  0.88739449  0.54103956  0.81879588  1
  N  N51  1  0.79263488  0.39894096  0.57717234  1
  N  N52  1  0.55125340  0.54268512  0.37740809  1
  N  N53  1  0.44534684  0.42809114  0.11712301  1
  N  N54  1  0.22393219  0.54064291  0.87036113  1
  N  N55  1  0.11381808  0.43050339  0.61054595  1
  N  N56  1  0.88240585  0.53659613  0.32208583  1
  N  N57  1  0.77837232  0.42254989  0.05716896  1
  N  N58  1  0.53891457  0.56745865  0.85754003  1
  N  N59  1  0.44228958  0.42718693  0.61971477  1
  N  N60  1  0.22598591  0.86796714  0.37736555  1
  N  N61  1  0.11141603  0.76201603  0.11712253  1
  N  N62  1  0.89049827  0.87528860  0.86621323  1
  N  N63  1  0.77546191  0.76841449  0.61507405  1
  N  N64  1  0.55437332  0.87103735  0.37256105  1
  N  N65  1  0.44392083  0.76056988  0.12309293  1
  N  N66  1  0.25077349  0.85561175  0.85758071  1
  N  N67  1  0.11048724  0.75901228  0.61970503  1
  N  N68  1  0.89019288  0.87200454  0.36764304  1
  N  N69  1  0.77238006  0.76642899  0.11494870  1
  N  N70  1  0.54373268  0.86044562  0.86204145  1
  N  N71  1  0.44535836  0.76210350  0.64030491  1
