# generated using pymatgen
data_Al17BN18
_symmetry_space_group_name_H-M   'P 1'
_cell_length_a   9.30435479
_cell_length_b   9.30435507
_cell_length_c   10.14016307
_cell_angle_alpha   90.04878880
_cell_angle_beta   90.04879279
_cell_angle_gamma   60.17779560
_symmetry_Int_Tables_number   1
_chemical_formula_structural   Al17BN18
_chemical_formula_sum   'Al34 B2 N36'
_cell_volume   761.59343184
_cell_formula_units_Z   2
loop_
 _symmetry_equiv_pos_site_id
 _symmetry_equiv_pos_as_xyz
  1  'x, y, z'
loop_
 _atom_site_type_symbol
 _atom_site_label
 _atom_site_symmetry_multiplicity
 _atom_site_fract_x
 _atom_site_fract_y
 _atom_site_fract_z
 _atom_site_occupancy
  Al  Al0  1  0.10137709  0.10099521  0.39525022  1
  Al  Al1  1  0.21526128  0.20426278  0.13639929  1
  Al  Al2  1  0.77826415  0.09496902  0.81173499  1
  Al  Al3  1  0.44880837  0.09035329  0.31910491  1
  Al  Al4  1  0.55545782  0.20476174  0.06624187  1
  Al  Al5  1  0.11409302  0.09551225  0.87690493  1
  Al  Al6  1  0.21258916  0.21066087  0.63754618  1
  Al  Al7  1  0.77425815  0.09096307  0.31709717  1
  Al  Al8  1  0.89024973  0.20695367  0.13380726  1
  Al  Al9  1  0.45032002  0.08830930  0.81692734  1
  Al  Al10  1  0.56040543  0.20700023  0.56718646  1
  Al  Al11  1  0.10792835  0.42463168  0.38447027  1
  Al  Al12  1  0.22492296  0.54162516  0.07225964  1
  Al  Al13  1  0.77881015  0.43079705  0.87690444  1
  Al  Al14  1  0.89395609  0.52929611  0.63754614  1
  Al  Al15  1  0.44695707  0.42924386  0.31869250  1
  Al  Al16  1  0.54738893  0.54667141  0.06217010  1
  Al  Al17  1  0.10896573  0.42566914  0.88978561  1
  Al  Al18  1  0.22534052  0.54204466  0.56589850  1
  Al  Al19  1  0.78429081  0.41808122  0.39525044  1
  Al  Al20  1  0.88756023  0.53196474  0.13639927  1
  Al  Al21  1  0.44177514  0.43380482  0.81757150  1
  Al  Al22  1  0.55428728  0.53878401  0.58142795  1
  Al  Al23  1  0.11253934  0.76366119  0.31869257  1
  Al  Al24  1  0.22996818  0.86409043  0.06217013  1
  Al  Al25  1  0.77160484  0.76702587  0.81692777  1
  Al  Al26  1  0.89029460  0.87711182  0.56718619  1
  Al  Al27  1  0.44376633  0.76047090  0.32232793  1
  Al  Al28  1  0.55298093  0.86968480  0.06388779  1
  Al  Al29  1  0.11710033  0.75847868  0.81757124  1
  Al  Al30  1  0.22207998  0.87099066  0.58142768  1
  Al  Al31  1  0.77364982  0.76551112  0.31910502  1
  Al  Al32  1  0.88805799  0.87216122  0.06624223  1
  Al  Al33  1  0.55495539  0.87165993  0.57243335  1
  B  B34  1  0.89200749  0.20871218  0.64544992  1
  B  B35  1  0.44373736  0.76044112  0.81473416  1
  N  N36  1  0.21590117  0.20379993  0.32758182  1
  N  N37  1  0.10642678  0.09643290  0.06695858  1
  N  N38  1  0.89487106  0.21157512  0.80723944  1
  N  N39  1  0.78785024  0.10455607  0.62249823  1
  N  N40  1  0.55451158  0.20667975  0.37893082  1
  N  N41  1  0.44836292  0.09024012  0.12587500  1
  N  N42  1  0.21986374  0.21023983  0.82580193  1
  N  N43  1  0.08280964  0.11030318  0.58791679  1
  N  N44  1  0.89042355  0.20712794  0.32233051  1
  N  N45  1  0.77386906  0.09057280  0.12646998  1
  N  N46  1  0.55789854  0.20699037  0.87736861  1
  N  N47  1  0.44980357  0.09333019  0.62625677  1
  N  N48  1  0.22502447  0.54172854  0.37463621  1
  N  N49  1  0.10798558  0.42468825  0.07968007  1
  N  N50  1  0.89353615  0.53656942  0.82580191  1
  N  N51  1  0.79359932  0.39951475  0.58791714  1
  N  N52  1  0.55159111  0.54264851  0.38879227  1
  N  N53  1  0.44747534  0.42761174  0.12902557  1
  N  N54  1  0.22523650  0.54194008  0.88182848  1
  N  N55  1  0.10914097  0.42584566  0.57361608  1
  N  N56  1  0.88709665  0.53260421  0.32758177  1
  N  N57  1  0.77973096  0.42313016  0.06695810  1
  N  N58  1  0.53928631  0.56731556  0.86814325  1
  N  N59  1  0.44278280  0.42692881  0.63125010  1
  N  N60  1  0.22594395  0.86829549  0.38879205  1
  N  N61  1  0.11090809  0.76417773  0.12902563  1
  N  N62  1  0.89028618  0.87460349  0.87736891  1
  N  N63  1  0.77662505  0.76650998  0.62625717  1
  N  N64  1  0.55448525  0.87118892  0.38341599  1
  N  N65  1  0.44406066  0.76076401  0.13415400  1
  N  N66  1  0.25061188  0.85598893  0.86814325  1
  N  N67  1  0.11022363  0.75948733  0.63124980  1
  N  N68  1  0.88997494  0.87121621  0.37893058  1
  N  N69  1  0.77353642  0.76506631  0.12587504  1
  N  N70  1  0.54385636  0.86056088  0.87292372  1
  N  N71  1  0.44547008  0.76217423  0.65142347  1
