# generated using pymatgen
data_Al17BN18
_symmetry_space_group_name_H-M   'P 1'
_cell_length_a   9.31620465
_cell_length_b   9.32441172
_cell_length_c   10.11187200
_cell_angle_alpha   90.06135019
_cell_angle_beta   90.09107758
_cell_angle_gamma   60.15119887
_symmetry_Int_Tables_number   1
_chemical_formula_structural   Al17BN18
_chemical_formula_sum   'Al34 B2 N36'
_cell_volume   761.87154553
_cell_formula_units_Z   2
loop_
 _symmetry_equiv_pos_site_id
 _symmetry_equiv_pos_as_xyz
  1  'x, y, z'
loop_
 _atom_site_type_symbol
 _atom_site_label
 _atom_site_symmetry_multiplicity
 _atom_site_fract_x
 _atom_site_fract_y
 _atom_site_fract_z
 _atom_site_occupancy
  Al  Al0  1  0.09984377  0.10107113  0.39690782  1
  Al  Al1  1  0.22165562  0.20113704  0.13799070  1
  Al  Al2  1  0.77997529  0.09458336  0.81316899  1
  Al  Al3  1  0.44193454  0.09406586  0.36275383  1
  Al  Al4  1  0.55586391  0.20561896  0.06665940  1
  Al  Al5  1  0.11424441  0.09544610  0.87925902  1
  Al  Al6  1  0.21381015  0.21041475  0.63934654  1
  Al  Al7  1  0.77350390  0.09112492  0.31781255  1
  Al  Al8  1  0.89082693  0.20690784  0.13516200  1
  Al  Al9  1  0.44720662  0.08974614  0.83984600  1
  Al  Al10  1  0.56258127  0.20929811  0.57240399  1
  Al  Al11  1  0.10627740  0.42638722  0.38560074  1
  Al  Al12  1  0.22475525  0.54136595  0.07457479  1
  Al  Al13  1  0.77886157  0.43056827  0.87853542  1
  Al  Al14  1  0.89455825  0.52859063  0.63929464  1
  Al  Al15  1  0.44642262  0.42986468  0.31987472  1
  Al  Al16  1  0.54750030  0.54650860  0.06397510  1
  Al  Al17  1  0.10899776  0.42548857  0.89240587  1
  Al  Al18  1  0.22472753  0.54237298  0.56758568  1
  Al  Al19  1  0.78366721  0.41833571  0.39649360  1
  Al  Al20  1  0.88797860  0.53138487  0.13775381  1
  Al  Al21  1  0.44147385  0.43517722  0.81901693  1
  Al  Al22  1  0.55416362  0.53886586  0.58261315  1
  Al  Al23  1  0.11190624  0.76409934  0.32017811  1
  Al  Al24  1  0.22982635  0.86458689  0.06432325  1
  Al  Al25  1  0.77307124  0.76591134  0.81878544  1
  Al  Al26  1  0.89040392  0.87698749  0.56865058  1
  Al  Al27  1  0.44329991  0.76025784  0.32373063  1
  Al  Al28  1  0.55341761  0.86800934  0.06485205  1
  Al  Al29  1  0.11726739  0.75838665  0.81966662  1
  Al  Al30  1  0.22166317  0.87135250  0.58344101  1
  Al  Al31  1  0.77280392  0.76599327  0.31991041  1
  Al  Al32  1  0.88763450  0.87239027  0.06807599  1
  Al  Al33  1  0.55664497  0.86770977  0.57854811  1
  B  B34  1  0.89326269  0.20848825  0.64727473  1
  B  B35  1  0.44478651  0.75915488  0.81589359  1
  N  N36  1  0.21665884  0.20357142  0.33018240  1
  N  N37  1  0.10693372  0.09660707  0.06982177  1
  N  N38  1  0.89582374  0.21149681  0.80919107  1
  N  N39  1  0.78967623  0.10385926  0.62402716  1
  N  N40  1  0.55586268  0.20909103  0.38225357  1
  N  N41  1  0.44415384  0.09228117  0.10024639  1
  N  N42  1  0.21944830  0.21053719  0.82640138  1
  N  N43  1  0.08297168  0.11064601  0.58968809  1
  N  N44  1  0.88966945  0.20742806  0.32405395  1
  N  N45  1  0.77394306  0.09092148  0.12747537  1
  N  N46  1  0.56026987  0.20936697  0.87559173  1
  N  N47  1  0.44596269  0.09511375  0.61280560  1
  N  N48  1  0.22440658  0.54204580  0.37574354  1
  N  N49  1  0.10851390  0.42401613  0.08287292  1
  N  N50  1  0.89407016  0.53579749  0.82802316  1
  N  N51  1  0.79351353  0.39957425  0.58968304  1
  N  N52  1  0.55115842  0.54270931  0.38994483  1
  N  N53  1  0.44762890  0.42778797  0.13039776  1
  N  N54  1  0.22504254  0.54168393  0.88348227  1
  N  N55  1  0.10905732  0.42598381  0.57517969  1
  N  N56  1  0.88615938  0.53300828  0.32933170  1
  N  N57  1  0.77963247  0.42305988  0.06888251  1
  N  N58  1  0.53944434  0.56705214  0.86971242  1
  N  N59  1  0.44194890  0.42873541  0.63277179  1
  N  N60  1  0.22537860  0.86884288  0.39014910  1
  N  N61  1  0.11078487  0.76428793  0.13038049  1
  N  N62  1  0.89026540  0.87459562  0.87890601  1
  N  N63  1  0.77825259  0.76561824  0.62844580  1
  N  N64  1  0.55609452  0.86680247  0.38736439  1
  N  N65  1  0.44422403  0.76023471  0.13575330  1
  N  N66  1  0.25065973  0.85608952  0.86979364  1
  N  N67  1  0.11016409  0.75965458  0.63267709  1
  N  N68  1  0.88901881  0.87161928  0.37997628  1
  N  N69  1  0.77371406  0.76452895  0.12701851  1
  N  N70  1  0.54578838  0.85613456  0.87170837  1
  N  N71  1  0.44496323  0.76092748  0.65310685  1
