# generated using pymatgen
data_Al17BN18
_symmetry_space_group_name_H-M   'P 1'
_cell_length_a   9.31400419
_cell_length_b   9.31833847
_cell_length_c   10.11269746
_cell_angle_alpha   90.05686761
_cell_angle_beta   90.08292015
_cell_angle_gamma   60.15558179
_symmetry_Int_Tables_number   1
_chemical_formula_structural   Al17BN18
_chemical_formula_sum   'Al34 B2 N36'
_cell_volume   761.29120226
_cell_formula_units_Z   2
loop_
 _symmetry_equiv_pos_site_id
 _symmetry_equiv_pos_as_xyz
  1  'x, y, z'
loop_
 _atom_site_type_symbol
 _atom_site_label
 _atom_site_symmetry_multiplicity
 _atom_site_fract_x
 _atom_site_fract_y
 _atom_site_fract_z
 _atom_site_occupancy
  Al  Al0  1  0.10019874  0.10113369  0.39709114  1
  Al  Al1  1  0.21818683  0.20283063  0.13835799  1
  Al  Al2  1  0.77946301  0.09469746  0.81361297  1
  Al  Al3  1  0.44623177  0.09168015  0.33413204  1
  Al  Al4  1  0.55540023  0.20493641  0.06732042  1
  Al  Al5  1  0.11445582  0.09541522  0.87914458  1
  Al  Al6  1  0.21300656  0.21071235  0.63923518  1
  Al  Al7  1  0.77354430  0.09128942  0.31837904  1
  Al  Al8  1  0.89057738  0.20688891  0.13530155  1
  Al  Al9  1  0.44965466  0.08869619  0.82290019  1
  Al  Al10  1  0.56145033  0.20793529  0.57135247  1
  Al  Al11  1  0.10668951  0.42586923  0.38592784  1
  Al  Al12  1  0.22485279  0.54150944  0.07456357  1
  Al  Al13  1  0.77889073  0.43061059  0.87858176  1
  Al  Al14  1  0.89436582  0.52885255  0.63937093  1
  Al  Al15  1  0.44651550  0.42961760  0.32031875  1
  Al  Al16  1  0.54756415  0.54653102  0.06410296  1
  Al  Al17  1  0.10915607  0.42540421  0.89220501  1
  Al  Al18  1  0.22497126  0.54229446  0.56765923  1
  Al  Al19  1  0.78375493  0.41830313  0.39664365  1
  Al  Al20  1  0.88773880  0.53167308  0.13786035  1
  Al  Al21  1  0.44151634  0.43466843  0.81937576  1
  Al  Al22  1  0.55426808  0.53877215  0.58293801  1
  Al  Al23  1  0.11193014  0.76407315  0.32029944  1
  Al  Al24  1  0.22997499  0.86427875  0.06432724  1
  Al  Al25  1  0.77271823  0.76618331  0.81910714  1
  Al  Al26  1  0.89032255  0.87704275  0.56882826  1
  Al  Al27  1  0.44333102  0.76043054  0.32412409  1
  Al  Al28  1  0.55288936  0.86936021  0.06527361  1
  Al  Al29  1  0.11723088  0.75839805  0.81962943  1
  Al  Al30  1  0.22183063  0.87120685  0.58343652  1
  Al  Al31  1  0.77286192  0.76584444  0.32044429  1
  Al  Al32  1  0.88777183  0.87231492  0.06813077  1
  Al  Al33  1  0.55581605  0.86990162  0.57702069  1
  B  B34  1  0.89284129  0.20850180  0.64739194  1
  B  B35  1  0.44423026  0.75967150  0.81619401  1
  N  N36  1  0.21535573  0.20413949  0.33069935  1
  N  N37  1  0.10697537  0.09638416  0.06964798  1
  N  N38  1  0.89554794  0.21146574  0.80937872  1
  N  N39  1  0.78910133  0.10416162  0.62421467  1
  N  N40  1  0.55485620  0.20793880  0.38234690  1
  N  N41  1  0.44750478  0.09065177  0.12146423  1
  N  N42  1  0.21970914  0.21036319  0.82766155  1
  N  N43  1  0.08297850  0.11045513  0.58990633  1
  N  N44  1  0.88966294  0.20737544  0.32416673  1
  N  N45  1  0.77387392  0.09089175  0.12758351  1
  N  N46  1  0.55889557  0.20791064  0.87745525  1
  N  N47  1  0.44905928  0.09364971  0.62560276  1
  N  N48  1  0.22441937  0.54205426  0.37585593  1
  N  N49  1  0.10847597  0.42425346  0.08261697  1
  N  N50  1  0.89393148  0.53601451  0.82812637  1
  N  N51  1  0.79360603  0.39954084  0.58980290  1
  N  N52  1  0.55122485  0.54271606  0.39014734  1
  N  N53  1  0.44766165  0.42759484  0.13050972  1
  N  N54  1  0.22506152  0.54178519  0.88358739  1
  N  N55  1  0.10918732  0.42600511  0.57546668  1
  N  N56  1  0.88619189  0.53307145  0.32944842  1
  N  N57  1  0.77972950  0.42303179  0.06893323  1
  N  N58  1  0.53944791  0.56715924  0.86980534  1
  N  N59  1  0.44229269  0.42803022  0.63292999  1
  N  N60  1  0.22535395  0.86873003  0.39023482  1
  N  N61  1  0.11079200  0.76430116  0.13046010  1
  N  N62  1  0.89042861  0.87452725  0.87899779  1
  N  N63  1  0.77779140  0.76578453  0.62838248  1
  N  N64  1  0.55488115  0.86929211  0.38716777  1
  N  N65  1  0.44426963  0.76045307  0.13584305  1
  N  N66  1  0.25068646  0.85599112  0.86986660  1
  N  N67  1  0.11019960  0.75962298  0.63274709  1
  N  N68  1  0.88915413  0.87155950  0.38011993  1
  N  N69  1  0.77359783  0.76470083  0.12707909  1
  N  N70  1  0.54473898  0.85882550  0.87336042  1
  N  N71  1  0.44523025  0.76140146  0.65320953  1
