# generated using pymatgen
data_Al17BN18
_symmetry_space_group_name_H-M   'P 1'
_cell_length_a   9.31621873
_cell_length_b   9.32443084
_cell_length_c   10.11188431
_cell_angle_alpha   90.06041692
_cell_angle_beta   90.09140025
_cell_angle_gamma   60.15038622
_symmetry_Int_Tables_number   1
_chemical_formula_structural   Al17BN18
_chemical_formula_sum   'Al34 B2 N36'
_cell_volume   761.86898433
_cell_formula_units_Z   2
loop_
 _symmetry_equiv_pos_site_id
 _symmetry_equiv_pos_as_xyz
  1  'x, y, z'
loop_
 _atom_site_type_symbol
 _atom_site_label
 _atom_site_symmetry_multiplicity
 _atom_site_fract_x
 _atom_site_fract_y
 _atom_site_fract_z
 _atom_site_occupancy
  Al  Al0  1  0.10345561  0.10206077  0.39197060  1
  Al  Al1  1  0.22137429  0.20254806  0.13611282  1
  Al  Al2  1  0.77663333  0.09894684  0.87774162  1
  Al  Al3  1  0.44564689  0.09425784  0.38821284  1
  Al  Al4  1  0.56047765  0.20065441  0.13638077  1
  Al  Al5  1  0.11161985  0.09529474  0.87285079  1
  Al  Al6  1  0.21601419  0.20826011  0.63662460  1
  Al  Al7  1  0.77986205  0.09864396  0.39144508  1
  Al  Al8  1  0.88998028  0.20638956  0.13256469  1
  Al  Al9  1  0.44287699  0.08966196  0.88763876  1
  Al  Al10  1  0.56020621  0.20074008  0.63750370  1
  Al  Al11  1  0.10852712  0.42528156  0.38171787  1
  Al  Al12  1  0.22700269  0.54026012  0.07069225  1
  Al  Al13  1  0.77912029  0.42778224  0.87368254  1
  Al  Al14  1  0.89180705  0.53147090  0.63727608  1
  Al  Al15  1  0.44530143  0.43526446  0.31853603  1
  Al  Al16  1  0.54961346  0.54831228  0.05979876  1
  Al  Al17  1  0.10855603  0.42427503  0.88870513  1
  Al  Al18  1  0.22428093  0.54116025  0.56388763  1
  Al  Al19  1  0.78578321  0.42013991  0.39231890  1
  Al  Al20  1  0.88685829  0.53678419  0.13641903  1
  Al  Al21  1  0.43872384  0.43805985  0.81699537  1
  Al  Al22  1  0.55442003  0.53608120  0.57775473  1
  Al  Al23  1  0.11161724  0.76551518  0.31829861  1
  Al  Al24  1  0.23343597  0.86557623  0.05938582  1
  Al  Al25  1  0.77069782  0.75734637  0.88389018  1
  Al  Al26  1  0.88607914  0.87690126  0.61640098  1
  Al  Al27  1  0.44245381  0.75974141  0.32113219  1
  Al  Al28  1  0.55977504  0.87552309  0.13847806  1
  Al  Al29  1  0.11947072  0.75623488  0.81694543  1
  Al  Al30  1  0.21903606  0.87120006  0.57703090  1
  Al  Al31  1  0.77741657  0.76102995  0.38963621  1
  Al  Al32  1  0.89135378  0.87257741  0.09346669  1
  Al  Al33  1  0.55330331  0.87206507  0.64312614  1
  B  B34  1  0.88849324  0.20749594  0.64040097  1
  B  B35  1  0.44001761  0.75815925  0.80901879  1
  N  N36  1  0.22249494  0.20236035  0.32591074  1
  N  N37  1  0.10790195  0.09780496  0.06614353  1
  N  N38  1  0.88831870  0.20572268  0.80318632  1
  N  N39  1  0.78748942  0.11052116  0.58459045  1
  N  N40  1  0.55956719  0.20211887  0.32927329  1
  N  N41  1  0.44426161  0.09503051  0.07631366  1
  N  N42  1  0.22311619  0.20699404  0.82361364  1
  N  N43  1  0.08262222  0.11055735  0.58649966  1
  N  N44  1  0.88905630  0.20641452  0.32054171  1
  N  N45  1  0.77718333  0.09985218  0.06892790  1
  N  N46  1  0.55502675  0.20103067  0.82784300  1
  N  N47  1  0.44301535  0.09205347  0.57738398  1
  N  N48  1  0.22476639  0.54263238  0.37341974  1
  N  N49  1  0.10887348  0.42460338  0.08054788  1
  N  N50  1  0.89133274  0.53791244  0.82352057  1
  N  N51  1  0.79383774  0.39959763  0.58658082  1
  N  N52  1  0.55364947  0.54358695  0.38740884  1
  N  N53  1  0.44712110  0.43364097  0.12696008  1
  N  N54  1  0.22422598  0.54066313  0.88111284  1
  N  N55  1  0.10823759  0.42496513  0.57281058  1
  N  N56  1  0.88565170  0.53886223  0.32589587  1
  N  N57  1  0.78212301  0.42394033  0.06635001  1
  N  N58  1  0.53976874  0.56707360  0.86661001  1
  N  N59  1  0.43921000  0.43085504  0.62826795  1
  N  N60  1  0.22634631  0.87003983  0.38646894  1
  N  N61  1  0.11661518  0.76307887  0.12611046  1
  N  N62  1  0.88732737  0.87153096  0.84352972  1
  N  N63  1  0.77300726  0.75728135  0.58070712  1
  N  N64  1  0.55933786  0.87572667  0.32881565  1
  N  N65  1  0.44361124  0.75921917  0.13224015  1
  N  N66  1  0.25031017  0.85600119  0.86660557  1
  N  N67  1  0.11383087  0.75611189  0.62989557  1
  N  N68  1  0.88913415  0.87436508  0.35609671  1
  N  N69  1  0.77741459  0.75755655  0.07404115  1
  N  N70  1  0.54360327  0.86278954  0.83226631  1
  N  N71  1  0.43745630  0.75515171  0.64710164  1
