# generated using pymatgen
data_Al17BN18
_symmetry_space_group_name_H-M   'P 1'
_cell_length_a   9.29963848
_cell_length_b   9.29963824
_cell_length_c   9.93925488
_cell_angle_alpha   89.99394198
_cell_angle_beta   89.99395381
_cell_angle_gamma   60.00210945
_symmetry_Int_Tables_number   1
_chemical_formula_structural   Al17BN18
_chemical_formula_sum   'Al34 B2 N36'
_cell_volume   744.43332748
_cell_formula_units_Z   2
loop_
 _symmetry_equiv_pos_site_id
 _symmetry_equiv_pos_as_xyz
  1  'x, y, z'
loop_
 _atom_site_type_symbol
 _atom_site_label
 _atom_site_symmetry_multiplicity
 _atom_site_fract_x
 _atom_site_fract_y
 _atom_site_fract_z
 _atom_site_occupancy
  Al  Al0  1  0.10951614  0.09400912  0.31048904  1
  Al  Al1  1  0.22132298  0.20454883  0.05393449  1
  Al  Al2  1  0.78052744  0.09720524  0.79865691  1
  Al  Al3  1  0.44501539  0.09304411  0.30376933  1
  Al  Al4  1  0.55755012  0.20471957  0.05361982  1
  Al  Al5  1  0.11029954  0.09406861  0.79937274  1
  Al  Al6  1  0.21703536  0.20704287  0.55306284  1
  Al  Al7  1  0.77905158  0.09572960  0.31013157  1
  Al  Al8  1  0.88882071  0.20549970  0.05546528  1
  Al  Al9  1  0.44281498  0.09076224  0.80330462  1
  Al  Al10  1  0.55862150  0.20737666  0.55350262  1
  Al  Al11  1  0.11109358  0.42777201  0.30301877  1
  Al  Al12  1  0.22237324  0.53905196  0.05362691  1
  Al  Al13  1  0.77739012  0.42697753  0.79937251  1
  Al  Al14  1  0.89036374  0.53371401  0.55306271  1
  Al  Al15  1  0.44532199  0.42879466  0.30325994  1
  Al  Al16  1  0.55462594  0.54336351  0.04953935  1
  Al  Al17  1  0.11099580  0.42767349  0.80339738  1
  Al  Al18  1  0.22218375  0.53886341  0.55267462  1
  Al  Al19  1  0.77733016  0.42619497  0.31048919  1
  Al  Al20  1  0.88787014  0.53800200  0.05393450  1
  Al  Al21  1  0.44303226  0.43286748  0.80352841  1
  Al  Al22  1  0.55801965  0.53597572  0.55981098  1
  Al  Al23  1  0.11211572  0.76200110  0.30326006  1
  Al  Al24  1  0.22668524  0.87130390  0.04953929  1
  Al  Al25  1  0.77408377  0.75949293  0.80330467  1
  Al  Al26  1  0.89069666  0.87530133  0.55350261  1
  Al  Al27  1  0.44430214  0.76098160  0.30535397  1
  Al  Al28  1  0.55273302  0.86941169  0.04917542  1
  Al  Al29  1  0.11618825  0.75971108  0.80352827  1
  Al  Al30  1  0.21929610  0.87469940  0.55981113  1
  Al  Al31  1  0.77636452  0.76169475  0.30376931  1
  Al  Al32  1  0.88804081  0.87422895  0.05361989  1
  Al  Al33  1  0.55432184  0.87100010  0.55907221  1
  B  B34  1  0.88891134  0.20559037  0.55029166  1
  B  B35  1  0.44498575  0.76166429  0.79901706  1
  N  N36  1  0.22241209  0.20565423  0.36247659  1
  N  N37  1  0.11051785  0.09295594  0.11633586  1
  N  N38  1  0.88919443  0.20587251  0.86609572  1
  N  N39  1  0.79028257  0.10696192  0.60499899  1
  N  N40  1  0.55463125  0.20624668  0.36261685  1
  N  N41  1  0.44557483  0.09239665  0.11056982  1
  N  N42  1  0.22070894  0.20486996  0.86188266  1
  N  N43  1  0.08595030  0.10722448  0.60626016  1
  N  N44  1  0.88905006  0.20572873  0.38413457  1
  N  N45  1  0.77865334  0.09533201  0.11765511  1
  N  N46  1  0.55733778  0.20455845  0.86068990  1
  N  N47  1  0.44360324  0.09553752  0.61258029  1
  N  N48  1  0.22243542  0.53911439  0.36121474  1
  N  N49  1  0.11093283  0.42761141  0.11206695  1
  N  N50  1  0.88819190  0.53738675  0.86188259  1
  N  N51  1  0.79054516  0.40262922  0.60625993  1
  N  N52  1  0.55418395  0.54074230  0.36812823  1
  N  N53  1  0.44613839  0.42867727  0.11050603  1
  N  N54  1  0.22190282  0.53858149  0.86337089  1
  N  N55  1  0.11133582  0.42801479  0.61265799  1
  N  N56  1  0.88897540  0.53909098  0.36247638  1
  N  N57  1  0.77627758  0.42719649  0.11633603  1
  N  N58  1  0.54538598  0.56279335  0.85385923  1
  N  N59  1  0.44327091  0.42798496  0.61365323  1
  N  N60  1  0.22406313  0.87086312  0.36812835  1
  N  N61  1  0.11199856  0.76281701  0.11050611  1
  N  N62  1  0.88787974  0.87401595  0.86069006  1
  N  N63  1  0.77885895  0.76028166  0.61258038  1
  N  N64  1  0.55472434  0.87140361  0.36683760  1
  N  N65  1  0.44419344  0.76087182  0.11597407  1
  N  N66  1  0.24611483  0.86206432  0.85385917  1
  N  N67  1  0.11130526  0.75995055  0.61365312  1
  N  N68  1  0.88956786  0.87130976  0.36261693  1
  N  N69  1  0.77571788  0.76225371  0.11056984  1
  N  N70  1  0.54295204  0.85963041  0.85517565  1
  N  N71  1  0.44427847  0.76095752  0.63353460  1
