# generated using pymatgen
data_Al17BN18
_symmetry_space_group_name_H-M   'P 1'
_cell_length_a   9.29963946
_cell_length_b   9.29963952
_cell_length_c   9.93925713
_cell_angle_alpha   89.99397973
_cell_angle_beta   89.99396974
_cell_angle_gamma   60.00211751
_symmetry_Int_Tables_number   1
_chemical_formula_structural   Al17BN18
_chemical_formula_sum   'Al34 B2 N36'
_cell_volume   744.43373743
_cell_formula_units_Z   2
loop_
 _symmetry_equiv_pos_site_id
 _symmetry_equiv_pos_as_xyz
  1  'x, y, z'
loop_
 _atom_site_type_symbol
 _atom_site_label
 _atom_site_symmetry_multiplicity
 _atom_site_fract_x
 _atom_site_fract_y
 _atom_site_fract_z
 _atom_site_occupancy
  Al  Al0  1  0.10661747  0.09534083  0.41155772  1
  Al  Al1  1  0.22118472  0.20464534  0.15783008  1
  Al  Al2  1  0.77898070  0.09564545  0.90201977  1
  Al  Al3  1  0.44526062  0.09241737  0.40747021  1
  Al  Al4  1  0.55693753  0.20495169  0.15732235  1
  Al  Al5  1  0.11400421  0.09194830  0.90128008  1
  Al  Al6  1  0.21711438  0.20693534  0.65756425  1
  Al  Al7  1  0.78056870  0.09723389  0.41192160  1
  Al  Al8  1  0.88899923  0.20566493  0.15574511  1
  Al  Al9  1  0.44260441  0.09134603  0.90759062  1
  Al  Al10  1  0.55921639  0.20715293  0.65778730  1
  Al  Al11  1  0.11092884  0.42759400  0.40746462  1
  Al  Al12  1  0.22220827  0.53887370  0.15807089  1
  Al  Al13  1  0.77528247  0.43066970  0.90128002  1
  Al  Al14  1  0.89026938  0.53378016  0.65756424  1
  Al  Al15  1  0.44543163  0.42864474  0.40715709  1
  Al  Al16  1  0.55597227  0.54045002  0.15060174  1
  Al  Al17  1  0.11111844  0.42778326  0.90841396  1
  Al  Al18  1  0.22230657  0.53897289  0.65769288  1
  Al  Al19  1  0.77867509  0.42328368  0.41155766  1
  Al  Al20  1  0.88798004  0.53785052  0.15783016  1
  Al  Al21  1  0.44293781  0.43293180  0.90802838  1
  Al  Al22  1  0.55591156  0.53966762  0.66172405  1
  Al  Al23  1  0.11197896  0.76209756  0.40715710  1
  Al  Al24  1  0.22378546  0.87263678  0.15060150  1
  Al  Al25  1  0.77468032  0.75926963  0.90759048  1
  Al  Al26  1  0.89048623  0.87588315  0.65778720  1
  Al  Al27  1  0.44448072  0.76114709  0.40563268  1
  Al  Al28  1  0.55425068  0.87091554  0.15095858  1
  Al  Al29  1  0.11626576  0.75960351  0.90802840  1
  Al  Al30  1  0.22300269  0.87257649  0.66172429  1
  Al  Al31  1  0.77575087  0.76192710  0.40747029  1
  Al  Al32  1  0.88828630  0.87360299  0.15732235  1
  Al  Al33  1  0.55277517  0.86944083  0.66244027  1
  B  B34  1  0.88831615  0.20498151  0.66207886  1
  B  B35  1  0.44439013  0.76105542  0.91080425  1
  N  N36  1  0.22130218  0.20382902  0.35058579  1
  N  N37  1  0.10923683  0.09578347  0.09296417  1
  N  N38  1  0.88902312  0.20568843  0.82755910  1
  N  N39  1  0.79034921  0.10701546  0.60592069  1
  N  N40  1  0.55758464  0.20439250  0.35052284  1
  N  N41  1  0.44373374  0.09533638  0.09847598  1
  N  N42  1  0.22199680  0.20669548  0.84743930  1
  N  N43  1  0.08718769  0.10458094  0.60723791  1
  N  N44  1  0.88910831  0.20577432  0.34512492  1
  N  N45  1  0.77857786  0.09524318  0.09425568  1
  N  N46  1  0.55444295  0.20636404  0.84851211  1
  N  N47  1  0.44542214  0.09262906  0.60040201  1
  N  N48  1  0.22236900  0.53903474  0.34902404  1
  N  N49  1  0.11086649  0.42753172  0.09987461  1
  N  N50  1  0.89003028  0.53866185  0.84743936  1
  N  N51  1  0.78791565  0.40385306  0.60723784  1
  N  N52  1  0.55702437  0.53945049  0.34475744  1
  N  N53  1  0.44432630  0.42755483  0.09861485  1
  N  N54  1  0.22196634  0.53863191  0.84843250  1
  N  N55  1  0.11139895  0.42806477  0.59772164  1
  N  N56  1  0.88716349  0.53796820  0.35058592  1
  N  N57  1  0.77911850  0.42590220  0.09296408  1
  N  N58  1  0.54275641  0.56401674  0.85483559  1
  N  N59  1  0.44511056  0.42925901  0.59920984  1
  N  N60  1  0.22278455  0.87369013  0.34475729  1
  N  N61  1  0.11088944  0.76099157  0.09861485  1
  N  N62  1  0.88969834  0.87110817  0.84851193  1
  N  N63  1  0.77596322  0.76208798  0.60040202  1
  N  N64  1  0.55464760  0.87131375  0.34343674  1
  N  N65  1  0.44425187  0.76091650  0.07695874  1
  N  N66  1  0.24735127  0.85942185  0.85483583  1
  N  N67  1  0.11259278  0.76177678  0.59920992  1
  N  N68  1  0.88772688  0.87425017  0.35052279  1
  N  N69  1  0.77867123  0.76039914  0.09847581  1
  N  N70  1  0.54301909  0.85968462  0.85609758  1
  N  N71  1  0.44410792  0.76077310  0.59500253  1
