# generated using pymatgen
data_Al17BN18
_symmetry_space_group_name_H-M   'P 1'
_cell_length_a   9.36023736
_cell_length_b   9.36023459
_cell_length_c   10.07045726
_cell_angle_alpha   90.12292554
_cell_angle_beta   90.12349494
_cell_angle_gamma   60.12695672
_symmetry_Int_Tables_number   1
_chemical_formula_structural   Al17BN18
_chemical_formula_sum   'Al34 B2 N36'
_cell_volume   765.07894329
_cell_formula_units_Z   2
loop_
 _symmetry_equiv_pos_site_id
 _symmetry_equiv_pos_as_xyz
  1  'x, y, z'
loop_
 _atom_site_type_symbol
 _atom_site_label
 _atom_site_symmetry_multiplicity
 _atom_site_fract_x
 _atom_site_fract_y
 _atom_site_fract_z
 _atom_site_occupancy
  Al  Al0  1  0.10433043  0.10107545  0.39260633  1
  Al  Al1  1  0.22117876  0.20206630  0.13726638  1
  Al  Al2  1  0.78162876  0.09831699  0.86938972  1
  Al  Al3  1  0.44112700  0.09247193  0.39227974  1
  Al  Al4  1  0.55340475  0.21163739  0.06481901  1
  Al  Al5  1  0.11138742  0.09508253  0.87545919  1
  Al  Al6  1  0.21303951  0.21070139  0.63836278  1
  Al  Al7  1  0.78329329  0.09997743  0.38926596  1
  Al  Al8  1  0.88915610  0.20584080  0.13329764  1
  Al  Al9  1  0.43677387  0.09235231  0.87647008  1
  Al  Al10  1  0.55718925  0.21304162  0.58096171  1
  Al  Al11  1  0.10889075  0.42557246  0.38198612  1
  Al  Al12  1  0.22451437  0.54119760  0.07424387  1
  Al  Al13  1  0.77840048  0.42807127  0.87545942  1
  Al  Al14  1  0.89401818  0.52972441  0.63836311  1
  Al  Al15  1  0.44831586  0.42758119  0.31969777  1
  Al  Al16  1  0.54909144  0.54580480  0.06247101  1
  Al  Al17  1  0.10838167  0.42506501  0.89100040  1
  Al  Al18  1  0.22499962  0.54168147  0.56474784  1
  Al  Al19  1  0.78439221  0.42101469  0.39260625  1
  Al  Al20  1  0.88538382  0.53786385  0.13726643  1
  Al  Al21  1  0.43927145  0.43661391  0.81714831  1
  Al  Al22  1  0.55495319  0.53804657  0.57872616  1
  Al  Al23  1  0.11089798  0.76499831  0.31969774  1
  Al  Al24  1  0.22912110  0.86577311  0.06247109  1
  Al  Al25  1  0.77566750  0.75345976  0.87647022  1
  Al  Al26  1  0.89635932  0.87387147  0.58096179  1
  Al  Al27  1  0.44416751  0.76085224  0.32258393  1
  Al  Al28  1  0.55281201  0.86949656  0.08792378  1
  Al  Al29  1  0.11992901  0.75595571  0.81714863  1
  Al  Al30  1  0.22136320  0.87163506  0.57872633  1
  Al  Al31  1  0.77578999  0.75780972  0.39227980  1
  Al  Al32  1  0.89495230  0.87009175  0.06481864  1
  Al  Al33  1  0.55399673  0.87068177  0.62267931  1
  B  B34  1  0.88986962  0.20655336  0.64173683  1
  B  B35  1  0.44137503  0.75805848  0.81249914  1
  N  N36  1  0.22181938  0.20260292  0.32734847  1
  N  N37  1  0.10744047  0.09739961  0.06880473  1
  N  N38  1  0.89051246  0.20719726  0.80418560  1
  N  N39  1  0.79348688  0.11016965  0.59073200  1
  N  N40  1  0.55421065  0.21083305  0.38236099  1
  N  N41  1  0.43838457  0.09564338  0.07299391  1
  N  N42  1  0.21754163  0.20989371  0.82467138  1
  N  N43  1  0.08386895  0.11065320  0.58712842  1
  N  N44  1  0.89009574  0.20678082  0.32140911  1
  N  N45  1  0.78144147  0.09812824  0.07160311  1
  N  N46  1  0.55116111  0.21247291  0.86630809  1
  N  N47  1  0.43821232  0.09665857  0.58942044  1
  N  N48  1  0.22533179  0.54201364  0.37283754  1
  N  N49  1  0.10802467  0.42470818  0.08312815  1
  N  N50  1  0.89320941  0.53422762  0.82467163  1
  N  N51  1  0.79397101  0.40055264  0.58712829  1
  N  N52  1  0.55275977  0.54225540  0.38632862  1
  N  N53  1  0.44743921  0.42853120  0.12916324  1
  N  N54  1  0.22421988  0.54090322  0.88271926  1
  N  N55  1  0.10924723  0.42593140  0.57359389  1
  N  N56  1  0.88592029  0.53850323  0.32734836  1
  N  N57  1  0.78071757  0.42412531  0.06880469  1
  N  N58  1  0.53920651  0.56647327  0.86858485  1
  N  N59  1  0.44003715  0.43229576  0.63123296  1
  N  N60  1  0.22557159  0.86944312  0.38632866  1
  N  N61  1  0.11184719  0.76412200  0.12916311  1
  N  N62  1  0.89578766  0.86784835  0.86630780  1
  N  N63  1  0.77997362  0.75489761  0.58942069  1
  N  N64  1  0.55420261  0.87088540  0.36313743  1
  N  N65  1  0.44217023  0.75885320  0.13257609  1
  N  N66  1  0.24978965  0.85588953  0.86858474  1
  N  N67  1  0.11561351  0.75671827  0.63123323  1
  N  N68  1  0.89415034  0.87089432  0.38236095  1
  N  N69  1  0.77895879  0.75507071  0.07299382  1
  N  N70  1  0.54247083  0.85915598  0.84778697  1
  N  N71  1  0.43989625  0.75657942  0.65051256  1
