# generated using pymatgen
data_Al17BN18
_symmetry_space_group_name_H-M   'P 1'
_cell_length_a   9.32738190
_cell_length_b   9.33058373
_cell_length_c   10.13092990
_cell_angle_alpha   90.09768803
_cell_angle_beta   90.03003691
_cell_angle_gamma   60.15911046
_symmetry_Int_Tables_number   1
_chemical_formula_structural   Al17BN18
_chemical_formula_sum   'Al34 B2 N36'
_cell_volume   764.78952135
_cell_formula_units_Z   2
loop_
 _symmetry_equiv_pos_site_id
 _symmetry_equiv_pos_as_xyz
  1  'x, y, z'
loop_
 _atom_site_type_symbol
 _atom_site_label
 _atom_site_symmetry_multiplicity
 _atom_site_fract_x
 _atom_site_fract_y
 _atom_site_fract_z
 _atom_site_occupancy
  Al  Al0  1  0.10097265  0.10043689  0.39545061  1
  Al  Al1  1  0.22279890  0.20055262  0.13771221  1
  Al  Al2  1  0.77839099  0.09685615  0.81148788  1
  Al  Al3  1  0.43715971  0.09632885  0.39177525  1
  Al  Al4  1  0.55864081  0.20782174  0.06674386  1
  Al  Al5  1  0.11332612  0.09574276  0.87795134  1
  Al  Al6  1  0.21533919  0.21045119  0.63996866  1
  Al  Al7  1  0.77344134  0.08925360  0.31659566  1
  Al  Al8  1  0.89144771  0.20713113  0.13490101  1
  Al  Al9  1  0.43866968  0.09468452  0.87896422  1
  Al  Al10  1  0.56319342  0.21181185  0.57070913  1
  Al  Al11  1  0.10891450  0.42365219  0.38401369  1
  Al  Al12  1  0.22413104  0.54123807  0.07414812  1
  Al  Al13  1  0.77853389  0.43055173  0.87865715  1
  Al  Al14  1  0.89413019  0.53016438  0.63919149  1
  Al  Al15  1  0.44710686  0.42882896  0.31934390  1
  Al  Al16  1  0.54782023  0.54606682  0.06349304  1
  Al  Al17  1  0.10828988  0.42576123  0.89226313  1
  Al  Al18  1  0.22462544  0.54187445  0.56664710  1
  Al  Al19  1  0.78396859  0.41633217  0.39570516  1
  Al  Al20  1  0.88525782  0.53773198  0.13745124  1
  Al  Al21  1  0.44124703  0.43541473  0.81850849  1
  Al  Al22  1  0.55418253  0.53903756  0.58158236  1
  Al  Al23  1  0.11265393  0.76343146  0.31926074  1
  Al  Al24  1  0.22928320  0.86477505  0.06333029  1
  Al  Al25  1  0.77492199  0.76093460  0.85452174  1
  Al  Al26  1  0.89385443  0.87997144  0.57194775  1
  Al  Al27  1  0.44387114  0.75991740  0.32317718  1
  Al  Al28  1  0.55342578  0.86380407  0.06501658  1
  Al  Al29  1  0.11863892  0.75840309  0.81838658  1
  Al  Al30  1  0.22166190  0.87158057  0.58168793  1
  Al  Al31  1  0.77925147  0.75501424  0.38040708  1
  Al  Al32  1  0.88994354  0.87282215  0.06533048  1
  Al  Al33  1  0.55196102  0.86932426  0.58554645  1
  B  B34  1  0.89341010  0.21032912  0.64645650  1
  B  B35  1  0.44328129  0.76076663  0.81497837  1
  N  N36  1  0.22063470  0.20094988  0.32715401  1
  N  N37  1  0.10714749  0.09672398  0.06880033  1
  N  N38  1  0.89567126  0.21285316  0.80799641  1
  N  N39  1  0.78850416  0.10590555  0.62351119  1
  N  N40  1  0.55696193  0.20887360  0.37962015  1
  N  N41  1  0.43948226  0.09457929  0.07451886  1
  N  N42  1  0.22052402  0.21038711  0.82502108  1
  N  N43  1  0.08317190  0.11116761  0.58877076  1
  N  N44  1  0.89076430  0.20608780  0.32312678  1
  N  N45  1  0.77471504  0.08972362  0.12727681  1
  N  N46  1  0.56063381  0.21124423  0.87518635  1
  N  N47  1  0.43824529  0.10040301  0.58734336  1
  N  N48  1  0.22485192  0.54140374  0.37502784  1
  N  N49  1  0.10836881  0.42338363  0.08311412  1
  N  N50  1  0.89404732  0.53569593  0.82497605  1
  N  N51  1  0.79370725  0.39986388  0.58857523  1
  N  N52  1  0.55180585  0.54197029  0.38911952  1
  N  N53  1  0.44703787  0.42822123  0.13023007  1
  N  N54  1  0.22437256  0.54195447  0.88321198  1
  N  N55  1  0.10888990  0.42547530  0.57392250  1
  N  N56  1  0.88633230  0.53422131  0.32860639  1
  N  N57  1  0.77991953  0.42302118  0.06926166  1
  N  N58  1  0.53924032  0.56734045  0.86971852  1
  N  N59  1  0.44155287  0.42951282  0.63234766  1
  N  N60  1  0.22569346  0.86826242  0.38924628  1
  N  N61  1  0.11110949  0.76418639  0.12993711  1
  N  N62  1  0.89317505  0.87813090  0.87409434  1
  N  N63  1  0.78106323  0.75973872  0.60259078  1
  N  N64  1  0.55239417  0.86673939  0.38702181  1
  N  N65  1  0.44319319  0.76006446  0.13549195  1
  N  N66  1  0.25013288  0.85649141  0.86957829  1
  N  N67  1  0.11234018  0.75880637  0.63233068  1
  N  N68  1  0.89240560  0.87264904  0.38147795  1
  N  N69  1  0.77879035  0.75626459  0.08474630  1
  N  N70  1  0.54058689  0.85799637  0.86607628  1
  N  N71  1  0.44286327  0.76027070  0.65306798  1
