# generated using pymatgen
data_Al17BN18
_symmetry_space_group_name_H-M   'P 1'
_cell_length_a   9.31434200
_cell_length_b   9.32640767
_cell_length_c   10.12202050
_cell_angle_alpha   90.06953752
_cell_angle_beta   90.08442728
_cell_angle_gamma   60.14707076
_symmetry_Int_Tables_number   1
_chemical_formula_structural   Al17BN18
_chemical_formula_sum   'Al34 B2 N36'
_cell_volume   762.61543783
_cell_formula_units_Z   2
loop_
 _symmetry_equiv_pos_site_id
 _symmetry_equiv_pos_as_xyz
  1  'x, y, z'
loop_
 _atom_site_type_symbol
 _atom_site_label
 _atom_site_symmetry_multiplicity
 _atom_site_fract_x
 _atom_site_fract_y
 _atom_site_fract_z
 _atom_site_occupancy
  Al  Al0  1  0.10372577  0.10191271  0.39216948  1
  Al  Al1  1  0.22132801  0.20257333  0.13607339  1
  Al  Al2  1  0.77622063  0.10040722  0.87751246  1
  Al  Al3  1  0.44550288  0.09432775  0.38838188  1
  Al  Al4  1  0.56067792  0.20054421  0.13628336  1
  Al  Al5  1  0.11178290  0.09511611  0.87299764  1
  Al  Al6  1  0.21603226  0.20825369  0.63672230  1
  Al  Al7  1  0.77834288  0.10177420  0.39125754  1
  Al  Al8  1  0.88977132  0.20630699  0.13250508  1
  Al  Al9  1  0.44283072  0.08968701  0.88786932  1
  Al  Al10  1  0.56053470  0.20042367  0.63788036  1
  Al  Al11  1  0.10873642  0.42518402  0.38188921  1
  Al  Al12  1  0.22664536  0.54068013  0.07104933  1
  Al  Al13  1  0.77924201  0.42766436  0.87399376  1
  Al  Al14  1  0.89178175  0.53143801  0.63761645  1
  Al  Al15  1  0.44499020  0.43560609  0.31838010  1
  Al  Al16  1  0.54961735  0.54832928  0.05988764  1
  Al  Al17  1  0.10877366  0.42424598  0.88889706  1
  Al  Al18  1  0.22442207  0.54107219  0.56421789  1
  Al  Al19  1  0.78589726  0.42018032  0.39254216  1
  Al  Al20  1  0.88671513  0.53704420  0.13640698  1
  Al  Al21  1  0.43860586  0.43822598  0.81706409  1
  Al  Al22  1  0.55448703  0.53608627  0.57784435  1
  Al  Al23  1  0.11004956  0.76631088  0.31816055  1
  Al  Al24  1  0.23301852  0.86551449  0.05976366  1
  Al  Al25  1  0.76995181  0.75620844  0.88417564  1
  Al  Al26  1  0.89019724  0.87502411  0.58918632  1
  Al  Al27  1  0.44216976  0.75973358  0.32101679  1
  Al  Al28  1  0.55995528  0.87550645  0.13845525  1
  Al  Al29  1  0.11778104  0.75696902  0.81669484  1
  Al  Al30  1  0.21921363  0.87117651  0.57746007  1
  Al  Al31  1  0.77601896  0.75951630  0.38967918  1
  Al  Al32  1  0.89462912  0.87071745  0.07065297  1
  Al  Al33  1  0.55340444  0.87208552  0.64355543  1
  B  B34  1  0.88811455  0.20761758  0.64048855  1
  B  B35  1  0.43968019  0.75809807  0.80917836  1
  N  N36  1  0.22250581  0.20236697  0.32589372  1
  N  N37  1  0.10788953  0.09778228  0.06613745  1
  N  N38  1  0.88849362  0.20584754  0.80311880  1
  N  N39  1  0.78695586  0.11220226  0.58529719  1
  N  N40  1  0.55941589  0.20208945  0.32910778  1
  N  N41  1  0.44418044  0.09507409  0.07635042  1
  N  N42  1  0.22315103  0.20697812  0.82358643  1
  N  N43  1  0.08270609  0.11048505  0.58645806  1
  N  N44  1  0.88934304  0.20645563  0.32049266  1
  N  N45  1  0.77637907  0.10123238  0.06997121  1
  N  N46  1  0.55508248  0.20079113  0.82770646  1
  N  N47  1  0.44317600  0.09197112  0.57735308  1
  N  N48  1  0.22451348  0.54302315  0.37365743  1
  N  N49  1  0.10889556  0.42457871  0.08058061  1
  N  N50  1  0.89155593  0.53758729  0.82356719  1
  N  N51  1  0.79391029  0.39968847  0.58655514  1
  N  N52  1  0.55369977  0.54358456  0.38749675  1
  N  N53  1  0.44679543  0.43392741  0.12718814  1
  N  N54  1  0.22428350  0.54085751  0.88131182  1
  N  N55  1  0.10826735  0.42496545  0.57281997  1
  N  N56  1  0.88591275  0.53862165  0.32584190  1
  N  N57  1  0.78217452  0.42395254  0.06643875  1
  N  N58  1  0.53986047  0.56704250  0.86673370  1
  N  N59  1  0.43922347  0.43085874  0.62845303  1
  N  N60  1  0.22619065  0.86986816  0.38669212  1
  N  N61  1  0.11408334  0.76428439  0.12764408  1
  N  N62  1  0.89153105  0.86953928  0.86216400  1
  N  N63  1  0.77217694  0.75622707  0.58150548  1
  N  N64  1  0.55918600  0.87597281  0.32865677  1
  N  N65  1  0.44327635  0.75929458  0.13242346  1
  N  N66  1  0.25023032  0.85575220  0.86675778  1
  N  N67  1  0.11254625  0.75673191  0.63109078  1
  N  N68  1  0.89212589  0.87296235  0.37568606  1
  N  N69  1  0.77677306  0.75704876  0.07531590  1
  N  N70  1  0.54346440  0.86300739  0.83232841  1
  N  N71  1  0.43733462  0.75512821  0.64734169  1
