# generated using pymatgen
data_Al17BN18
_symmetry_space_group_name_H-M   'P 1'
_cell_length_a   9.31739079
_cell_length_b   9.31714103
_cell_length_c   10.06704946
_cell_angle_alpha   89.81131725
_cell_angle_beta   89.82324281
_cell_angle_gamma   60.10420394
_symmetry_Int_Tables_number   1
_chemical_formula_structural   Al17BN18
_chemical_formula_sum   'Al34 B2 N36'
_cell_volume   757.63830147
_cell_formula_units_Z   2
loop_
 _symmetry_equiv_pos_site_id
 _symmetry_equiv_pos_as_xyz
  1  'x, y, z'
loop_
 _atom_site_type_symbol
 _atom_site_label
 _atom_site_symmetry_multiplicity
 _atom_site_fract_x
 _atom_site_fract_y
 _atom_site_fract_z
 _atom_site_occupancy
  Al  Al0  1  0.09947188  0.09765663  0.38135661  1
  Al  Al1  1  0.22475076  0.20741380  0.05732629  1
  Al  Al2  1  0.77810794  0.09479174  0.80286787  1
  Al  Al3  1  0.44306464  0.09293211  0.30952890  1
  Al  Al4  1  0.55622041  0.20495219  0.05644252  1
  Al  Al5  1  0.11322251  0.09307976  0.86479782  1
  Al  Al6  1  0.22008632  0.20968629  0.56395203  1
  Al  Al7  1  0.77361384  0.09024739  0.30620688  1
  Al  Al8  1  0.89118717  0.20811633  0.12302814  1
  Al  Al9  1  0.44537685  0.09026850  0.80673792  1
  Al  Al10  1  0.56095075  0.20700381  0.55790237  1
  Al  Al11  1  0.10982747  0.42659696  0.30984688  1
  Al  Al12  1  0.22168082  0.53836745  0.05991110  1
  Al  Al13  1  0.77637036  0.42992276  0.86426617  1
  Al  Al14  1  0.89303504  0.53693149  0.56418489  1
  Al  Al15  1  0.44514530  0.42869345  0.30927980  1
  Al  Al16  1  0.54640643  0.54625076  0.05384184  1
  Al  Al17  1  0.11317336  0.42981410  0.80734591  1
  Al  Al18  1  0.22264294  0.53932708  0.55666542  1
  Al  Al19  1  0.78098197  0.41600837  0.38207626  1
  Al  Al20  1  0.89069465  0.54139695  0.05697287  1
  Al  Al21  1  0.44197678  0.43323327  0.80820446  1
  Al  Al22  1  0.55415582  0.53792392  0.57207091  1
  Al  Al23  1  0.11204512  0.76171332  0.30920841  1
  Al  Al24  1  0.22964231  0.86302236  0.05416225  1
  Al  Al25  1  0.77350371  0.76223745  0.80669624  1
  Al  Al26  1  0.89029681  0.87770614  0.55785847  1
  Al  Al27  1  0.44418749  0.76057399  0.31215573  1
  Al  Al28  1  0.55279296  0.86938985  0.05509821  1
  Al  Al29  1  0.11655138  0.75880936  0.80819875  1
  Al  Al30  1  0.22103804  0.87104396  0.57163852  1
  Al  Al31  1  0.77637191  0.75950991  0.30956202  1
  Al  Al32  1  0.88828090  0.87285905  0.05645626  1
  Al  Al33  1  0.55459331  0.87139747  0.56357309  1
  B  B34  1  0.89258988  0.20912086  0.63490233  1
  B  B35  1  0.44339834  0.76033516  0.80426276  1
  N  N36  1  0.22335289  0.20620717  0.37109986  1
  N  N37  1  0.10654979  0.09285914  0.06107861  1
  N  N38  1  0.89500928  0.21142406  0.79924929  1
  N  N39  1  0.78754133  0.10425427  0.61267802  1
  N  N40  1  0.55467423  0.20580311  0.36828795  1
  N  N41  1  0.44490411  0.09213308  0.11789324  1
  N  N42  1  0.22760474  0.21052198  0.86531661  1
  N  N43  1  0.08115427  0.10941197  0.57912564  1
  N  N44  1  0.89015919  0.20711799  0.31107972  1
  N  N45  1  0.77419502  0.09082896  0.11520966  1
  N  N46  1  0.55773868  0.20633602  0.86655336  1
  N  N47  1  0.44610427  0.09476926  0.61822629  1
  N  N48  1  0.22186573  0.53847213  0.36729212  1
  N  N49  1  0.10998951  0.42681982  0.12048293  1
  N  N50  1  0.89380598  0.54435410  0.86502128  1
  N  N51  1  0.79261930  0.39805566  0.57967116  1
  N  N52  1  0.55008148  0.54214964  0.37708649  1
  N  N53  1  0.44475010  0.42785133  0.11797831  1
  N  N54  1  0.22269367  0.53945663  0.87121343  1
  N  N55  1  0.11282047  0.42939552  0.61992599  1
  N  N56  1  0.88958472  0.53987820  0.37141669  1
  N  N57  1  0.77619743  0.42316492  0.06050877  1
  N  N58  1  0.53823506  0.56730803  0.85744623  1
  N  N59  1  0.44207927  0.42693472  0.62050273  1
  N  N60  1  0.22556536  0.86672927  0.37669225  1
  N  N61  1  0.11117074  0.76136561  0.11798140  1
  N  N62  1  0.88965653  0.87443403  0.86656466  1
  N  N63  1  0.77798327  0.76298439  0.61822878  1
  N  N64  1  0.55463637  0.87119070  0.37281596  1
  N  N65  1  0.44404758  0.76046886  0.12383142  1
  N  N66  1  0.25055369  0.85504666  0.85773679  1
  N  N67  1  0.11027818  0.75883640  0.62043541  1
  N  N68  1  0.88919945  0.87124550  0.36824677  1
  N  N69  1  0.77555753  0.76140570  0.11787556  1
  N  N70  1  0.54365454  0.86038658  0.86217001  1
  N  N71  1  0.44487670  0.76192927  0.64035161  1
