# generated using pymatgen
data_Al17BN18
_symmetry_space_group_name_H-M   'P 1'
_cell_length_a   9.31622959
_cell_length_b   9.32534400
_cell_length_c   10.11275902
_cell_angle_alpha   90.06221699
_cell_angle_beta   90.09137828
_cell_angle_gamma   60.14997116
_symmetry_Int_Tables_number   1
_chemical_formula_structural   Al17BN18
_chemical_formula_sum   'Al34 B2 N36'
_cell_volume   762.00721832
_cell_formula_units_Z   2
loop_
 _symmetry_equiv_pos_site_id
 _symmetry_equiv_pos_as_xyz
  1  'x, y, z'
loop_
 _atom_site_type_symbol
 _atom_site_label
 _atom_site_symmetry_multiplicity
 _atom_site_fract_x
 _atom_site_fract_y
 _atom_site_fract_z
 _atom_site_occupancy
  Al  Al0  1  0.10350153  0.10201468  0.39198928  1
  Al  Al1  1  0.22137101  0.20254957  0.13611167  1
  Al  Al2  1  0.77647613  0.09938930  0.87760280  1
  Al  Al3  1  0.44563806  0.09426081  0.38823309  1
  Al  Al4  1  0.56052832  0.20061636  0.13641109  1
  Al  Al5  1  0.11165625  0.09525933  0.87287419  1
  Al  Al6  1  0.21600980  0.20826277  0.63663306  1
  Al  Al7  1  0.77962469  0.09915910  0.39144075  1
  Al  Al8  1  0.88994568  0.20638063  0.13259125  1
  Al  Al9  1  0.44286142  0.08967087  0.88768742  1
  Al  Al10  1  0.56019171  0.20073922  0.63758772  1
  Al  Al11  1  0.10856065  0.42528250  0.38173012  1
  Al  Al12  1  0.22698194  0.54028237  0.07077868  1
  Al  Al13  1  0.77914433  0.42776065  0.87375377  1
  Al  Al14  1  0.89180914  0.53140673  0.63735868  1
  Al  Al15  1  0.44524593  0.43532720  0.31852273  1
  Al  Al16  1  0.54962562  0.54830968  0.05982749  1
  Al  Al17  1  0.10860366  0.42426607  0.88873825  1
  Al  Al18  1  0.22431551  0.54113097  0.56390906  1
  Al  Al19  1  0.78580036  0.42014573  0.39235096  1
  Al  Al20  1  0.88683676  0.53681944  0.13645508  1
  Al  Al21  1  0.43869114  0.43810487  0.81701647  1
  Al  Al22  1  0.55443107  0.53608507  0.57776842  1
  Al  Al23  1  0.11108439  0.76577900  0.31829139  1
  Al  Al24  1  0.23340321  0.86557262  0.05946494  1
  Al  Al25  1  0.77047390  0.75704715  0.88386427  1
  Al  Al26  1  0.88687691  0.87655562  0.61053358  1
  Al  Al27  1  0.44240077  0.75973776  0.32112783  1
  Al  Al28  1  0.55982119  0.87552593  0.13852131  1
  Al  Al29  1  0.11916280  0.75636797  0.81693020  1
  Al  Al30  1  0.21908489  0.87120200  0.57707416  1
  Al  Al31  1  0.77720163  0.76077544  0.38968204  1
  Al  Al32  1  0.89226402  0.87206057  0.08700692  1
  Al  Al33  1  0.55324842  0.87208727  0.64322685  1
  B  B34  1  0.88839755  0.20757355  0.64045980  1
  B  B35  1  0.43993666  0.75815468  0.80905061  1
  N  N36  1  0.22249560  0.20236282  0.32591844  1
  N  N37  1  0.10789837  0.09779270  0.06615160  1
  N  N38  1  0.88836713  0.20578178  0.80318912  1
  N  N39  1  0.78728884  0.11104008  0.58488566  1
  N  N40  1  0.55954675  0.20212246  0.32927266  1
  N  N41  1  0.44426069  0.09503083  0.07633454  1
  N  N42  1  0.22312232  0.20699050  0.82361402  1
  N  N43  1  0.08262845  0.11053909  0.58650278  1
  N  N44  1  0.88909620  0.20643140  0.32055662  1
  N  N45  1  0.77695108  0.10027540  0.06912893  1
  N  N46  1  0.55499109  0.20101471  0.82781766  1
  N  N47  1  0.44304882  0.09203772  0.57738910  1
  N  N48  1  0.22473294  0.54270232  0.37342993  1
  N  N49  1  0.10887653  0.42460056  0.08056480  1
  N  N50  1  0.89139046  0.53780914  0.82353957  1
  N  N51  1  0.79384549  0.39961675  0.58658668  1
  N  N52  1  0.55366482  0.54358365  0.38742242  1
  N  N53  1  0.44707825  0.43368343  0.12699759  1
  N  N54  1  0.22425257  0.54068042  0.88115841  1
  N  N55  1  0.10823767  0.42497960  0.57282266  1
  N  N56  1  0.88568676  0.53881975  0.32591433  1
  N  N57  1  0.78213792  0.42394098  0.06638094  1
  N  N58  1  0.53978917  0.56706814  0.86662871  1
  N  N59  1  0.43919222  0.43088155  0.62829481  1
  N  N60  1  0.22633250  0.86999726  0.38648472  1
  N  N61  1  0.11607939  0.76333062  0.12639879  1
  N  N62  1  0.88825497  0.87108470  0.84789122  1
  N  N63  1  0.77273838  0.75699206  0.58103173  1
  N  N64  1  0.55931962  0.87575383  0.32882006  1
  N  N65  1  0.44356513  0.75922603  0.13227282  1
  N  N66  1  0.25030748  0.85595347  0.86664100  1
  N  N67  1  0.11369201  0.75617473  0.63023716  1
  N  N68  1  0.88989079  0.87400235  0.36102050  1
  N  N69  1  0.77722658  0.75738618  0.07429917  1
  N  N70  1  0.54353298  0.86284631  0.83228957  1
  N  N71  1  0.43741146  0.75514642  0.64713898  1
