# generated using pymatgen
data_Al17BN18
_symmetry_space_group_name_H-M   'P 1'
_cell_length_a   9.35886403
_cell_length_b   9.35885930
_cell_length_c   10.07303810
_cell_angle_alpha   90.11457929
_cell_angle_beta   90.11563204
_cell_angle_gamma   60.12557034
_symmetry_Int_Tables_number   1
_chemical_formula_structural   Al17BN18
_chemical_formula_sum   'Al34 B2 N36'
_cell_volume   765.03997802
_cell_formula_units_Z   2
loop_
 _symmetry_equiv_pos_site_id
 _symmetry_equiv_pos_as_xyz
  1  'x, y, z'
loop_
 _atom_site_type_symbol
 _atom_site_label
 _atom_site_symmetry_multiplicity
 _atom_site_fract_x
 _atom_site_fract_y
 _atom_site_fract_z
 _atom_site_occupancy
  Al  Al0  1  0.10432251  0.10114669  0.39261319  1
  Al  Al1  1  0.22103073  0.20214620  0.13729545  1
  Al  Al2  1  0.78160567  0.09829409  0.86934935  1
  Al  Al3  1  0.44141761  0.09199214  0.39225075  1
  Al  Al4  1  0.55339524  0.21173639  0.06473486  1
  Al  Al5  1  0.11139958  0.09512344  0.87540548  1
  Al  Al6  1  0.21319606  0.21054412  0.63827160  1
  Al  Al7  1  0.78329007  0.09997461  0.38925568  1
  Al  Al8  1  0.88914160  0.20582561  0.13329698  1
  Al  Al9  1  0.43694917  0.09185517  0.87718696  1
  Al  Al10  1  0.55713879  0.21287981  0.58078417  1
  Al  Al11  1  0.10890014  0.42558186  0.38201287  1
  Al  Al12  1  0.22453649  0.54121958  0.07420234  1
  Al  Al13  1  0.77844124  0.42808340  0.87540596  1
  Al  Al14  1  0.89386135  0.52988056  0.63827199  1
  Al  Al15  1  0.44833639  0.42754951  0.31966077  1
  Al  Al16  1  0.54906885  0.54592105  0.06229044  1
  Al  Al17  1  0.10839702  0.42508011  0.89090218  1
  Al  Al18  1  0.22500488  0.54168690  0.56473112  1
  Al  Al19  1  0.78446327  0.42100681  0.39261309  1
  Al  Al20  1  0.88546412  0.53771545  0.13729547  1
  Al  Al21  1  0.43929033  0.43654788  0.81708423  1
  Al  Al22  1  0.55493328  0.53798123  0.57861795  1
  Al  Al23  1  0.11086590  0.76501931  0.31966076  1
  Al  Al24  1  0.22923740  0.86575022  0.06229049  1
  Al  Al25  1  0.77517021  0.75363502  0.87718727  1
  Al  Al26  1  0.89619753  0.87382078  0.58078432  1
  Al  Al27  1  0.44395000  0.76063530  0.32246072  1
  Al  Al28  1  0.55372858  0.87041328  0.09605012  1
  Al  Al29  1  0.11986270  0.75597498  0.81708467  1
  Al  Al30  1  0.22129788  0.87161495  0.57861833  1
  Al  Al31  1  0.77530985  0.75810065  0.39225053  1
  Al  Al32  1  0.89505144  0.87008192  0.06473445  1
  Al  Al33  1  0.55432699  0.87101145  0.62926806  1
  B  B34  1  0.88986266  0.20654644  0.64169527  1
  B  B35  1  0.44112211  0.75780538  0.81207413  1
  N  N36  1  0.22185487  0.20261833  0.32732599  1
  N  N37  1  0.10742189  0.09740997  0.06873269  1
  N  N38  1  0.89051191  0.20719703  0.80416298  1
  N  N39  1  0.79344852  0.11013093  0.59074236  1
  N  N40  1  0.55419197  0.21086577  0.38238006  1
  N  N41  1  0.43837563  0.09546146  0.07280436  1
  N  N42  1  0.21777064  0.20979252  0.82462020  1
  N  N43  1  0.08383446  0.11065649  0.58710520  1
  N  N44  1  0.89010039  0.20678619  0.32137667  1
  N  N45  1  0.78141449  0.09810070  0.07162870  1
  N  N46  1  0.55110434  0.21241049  0.86637289  1
  N  N47  1  0.43851102  0.09569894  0.58868599  1
  N  N48  1  0.22535834  0.54203998  0.37284719  1
  N  N49  1  0.10802873  0.42471252  0.08303703  1
  N  N50  1  0.89310764  0.53445704  0.82462051  1
  N  N51  1  0.79397473  0.40051791  0.58710495  1
  N  N52  1  0.55281288  0.54228832  0.38633167  1
  N  N53  1  0.44745680  0.42851813  0.12914393  1
  N  N54  1  0.22424999  0.54093283  0.88272348  1
  N  N55  1  0.10923838  0.42592299  0.57360637  1
  N  N56  1  0.88593509  0.53853932  0.32732580  1
  N  N57  1  0.78072831  0.42410659  0.06873261  1
  N  N58  1  0.53922581  0.56657660  0.86847786  1
  N  N59  1  0.44005159  0.43211101  0.63122515  1
  N  N60  1  0.22560451  0.86949649  0.38633167  1
  N  N61  1  0.11183477  0.76413887  0.12914374  1
  N  N62  1  0.89572532  0.86779164  0.86637255  1
  N  N63  1  0.77901387  0.75519642  0.58868605  1
  N  N64  1  0.55494184  0.87162552  0.35661392  1
  N  N65  1  0.44189201  0.75857424  0.13231898  1
  N  N66  1  0.24989291  0.85590914  0.86847759  1
  N  N67  1  0.11542918  0.75673207  0.63122551  1
  N  N68  1  0.89418311  0.87087587  0.38237982  1
  N  N69  1  0.77877645  0.75506214  0.07280425  1
  N  N70  1  0.54304548  0.85973096  0.84364754  1
  N  N71  1  0.43950034  0.75618302  0.64999791  1
