# generated using pymatgen
data_Al17BN18
_symmetry_space_group_name_H-M   'P 1'
_cell_length_a   9.31924489
_cell_length_b   9.31308917
_cell_length_c   10.01461703
_cell_angle_alpha   89.72289908
_cell_angle_beta   90.05040789
_cell_angle_gamma   60.02609438
_symmetry_Int_Tables_number   1
_chemical_formula_structural   Al17BN18
_chemical_formula_sum   'Al34 B2 N36'
_cell_volume   752.91400475
_cell_formula_units_Z   2
loop_
 _symmetry_equiv_pos_site_id
 _symmetry_equiv_pos_as_xyz
  1  'x, y, z'
loop_
 _atom_site_type_symbol
 _atom_site_label
 _atom_site_symmetry_multiplicity
 _atom_site_fract_x
 _atom_site_fract_y
 _atom_site_fract_z
 _atom_site_occupancy
  Al  Al0  1  0.11435680  0.09143558  0.30525505  1
  Al  Al1  1  0.22331987  0.20469164  0.05718987  1
  Al  Al2  1  0.78066668  0.09665212  0.81198955  1
  Al  Al3  1  0.44480717  0.09347834  0.30974805  1
  Al  Al4  1  0.55484581  0.20499308  0.05710348  1
  Al  Al5  1  0.11162155  0.09344370  0.81221686  1
  Al  Al6  1  0.21601515  0.20802048  0.55864332  1
  Al  Al7  1  0.77678575  0.09283792  0.30474437  1
  Al  Al8  1  0.89011913  0.20215896  0.07956633  1
  Al  Al9  1  0.44330473  0.09042640  0.80792642  1
  Al  Al10  1  0.55956876  0.20847396  0.55938689  1
  Al  Al11  1  0.11060750  0.42702818  0.30946825  1
  Al  Al12  1  0.22158037  0.53927389  0.06021780  1
  Al  Al13  1  0.77496923  0.42985079  0.87027323  1
  Al  Al14  1  0.89374813  0.53583989  0.56410642  1
  Al  Al15  1  0.44610560  0.42811432  0.31005929  1
  Al  Al16  1  0.54492423  0.54839604  0.05737980  1
  Al  Al17  1  0.11297809  0.42806279  0.80821991  1
  Al  Al18  1  0.22255439  0.53965674  0.55704397  1
  Al  Al19  1  0.78187258  0.41714931  0.36744785  1
  Al  Al20  1  0.89065235  0.54234120  0.06019011  1
  Al  Al21  1  0.44157592  0.43347795  0.80892569  1
  Al  Al22  1  0.55494229  0.53775442  0.57191376  1
  Al  Al23  1  0.11118800  0.76336164  0.30901209  1
  Al  Al24  1  0.22787163  0.86963406  0.05289908  1
  Al  Al25  1  0.77302383  0.76076652  0.80737982  1
  Al  Al26  1  0.89130268  0.87747450  0.55865410  1
  Al  Al27  1  0.44448288  0.76064832  0.31231960  1
  Al  Al28  1  0.55265587  0.86935760  0.05603347  1
  Al  Al29  1  0.11609439  0.75928753  0.80852673  1
  Al  Al30  1  0.21710517  0.87660026  0.56505348  1
  Al  Al31  1  0.77621039  0.76103863  0.31046950  1
  Al  Al32  1  0.88789891  0.87170314  0.05641230  1
  Al  Al33  1  0.55368733  0.87212361  0.56371437  1
  B  B34  1  0.88885367  0.20727145  0.59824230  1
  B  B35  1  0.44287796  0.76188680  0.80493423  1
  N  N36  1  0.22230850  0.20439287  0.36933835  1
  N  N37  1  0.12056451  0.08763149  0.11392220  1
  N  N38  1  0.89436100  0.19762696  0.87653231  1
  N  N39  1  0.79293141  0.11015537  0.61642751  1
  N  N40  1  0.55639182  0.20494133  0.36966900  1
  N  N41  1  0.44527481  0.09250452  0.11724252  1
  N  N42  1  0.22251733  0.20589384  0.86654485  1
  N  N43  1  0.08132086  0.11022772  0.61747518  1
  N  N44  1  0.89088900  0.20217468  0.32732780  1
  N  N45  1  0.77337502  0.08943745  0.11503438  1
  N  N46  1  0.55546430  0.20587875  0.86561283  1
  N  N47  1  0.44387568  0.09580421  0.61801429  1
  N  N48  1  0.22236358  0.53911630  0.36706249  1
  N  N49  1  0.11157048  0.42662847  0.11949847  1
  N  N50  1  0.89353016  0.54174011  0.86567761  1
  N  N51  1  0.79509475  0.39512590  0.58721156  1
  N  N52  1  0.55116917  0.54216973  0.37799931  1
  N  N53  1  0.44467051  0.42783896  0.11841370  1
  N  N54  1  0.22232636  0.53878009  0.87046227  1
  N  N55  1  0.11406398  0.42758383  0.61907128  1
  N  N56  1  0.89018571  0.54003737  0.37178346  1
  N  N57  1  0.77166834  0.43310549  0.07521216  1
  N  N58  1  0.53721371  0.56746778  0.85886869  1
  N  N59  1  0.44245636  0.42770708  0.62060781  1
  N  N60  1  0.22382500  0.87197789  0.37463438  1
  N  N61  1  0.11143824  0.76306128  0.11638282  1
  N  N62  1  0.88869202  0.87156132  0.86514367  1
  N  N63  1  0.77785717  0.76302227  0.61811157  1
  N  N64  1  0.55469158  0.87133760  0.37283567  1
  N  N65  1  0.44278152  0.76202717  0.12390607  1
  N  N66  1  0.24680979  0.86064625  0.85867933  1
  N  N67  1  0.11137562  0.76011039  0.61923331  1
  N  N68  1  0.88862955  0.87200094  0.36918703  1
  N  N69  1  0.77556872  0.76237208  0.11851951  1
  N  N70  1  0.54309378  0.85959644  0.86198483  1
  N  N71  1  0.44280137  0.76346888  0.63963756  1
