# generated using pymatgen
data_Al17BN18
_symmetry_space_group_name_H-M   'P 1'
_cell_length_a   9.32733951
_cell_length_b   9.32734143
_cell_length_c   10.08073467
_cell_angle_alpha   90.16914319
_cell_angle_beta   90.16949072
_cell_angle_gamma   60.29549741
_symmetry_Int_Tables_number   1
_chemical_formula_structural   Al17BN18
_chemical_formula_sum   'Al34 B2 N36'
_cell_volume   761.76571189
_cell_formula_units_Z   2
loop_
 _symmetry_equiv_pos_site_id
 _symmetry_equiv_pos_as_xyz
  1  'x, y, z'
loop_
 _atom_site_type_symbol
 _atom_site_label
 _atom_site_symmetry_multiplicity
 _atom_site_fract_x
 _atom_site_fract_y
 _atom_site_fract_z
 _atom_site_occupancy
  Al  Al0  1  0.10131327  0.10093528  0.38501242  1
  Al  Al1  1  0.21854023  0.19941025  0.12304946  1
  Al  Al2  1  0.77852247  0.09521025  0.80160476  1
  Al  Al3  1  0.44994117  0.08937051  0.30947774  1
  Al  Al4  1  0.55550939  0.20503738  0.05572139  1
  Al  Al5  1  0.11396613  0.09529291  0.86682226  1
  Al  Al6  1  0.21626927  0.20441846  0.62327786  1
  Al  Al7  1  0.77474842  0.09143798  0.30667036  1
  Al  Al8  1  0.89030615  0.20699373  0.12317729  1
  Al  Al9  1  0.45166412  0.08693568  0.80679156  1
  Al  Al10  1  0.56053205  0.20741587  0.55661808  1
  Al  Al11  1  0.11219621  0.42888751  0.31867063  1
  Al  Al12  1  0.22184313  0.53853206  0.05973128  1
  Al  Al13  1  0.77860665  0.43065332  0.86682207  1
  Al  Al14  1  0.88773274  0.53295549  0.62327801  1
  Al  Al15  1  0.44736240  0.42925255  0.30781493  1
  Al  Al16  1  0.54634102  0.54666423  0.05176901  1
  Al  Al17  1  0.11436063  0.43104662  0.81855540  1
  Al  Al18  1  0.22279689  0.53948491  0.55456785  1
  Al  Al19  1  0.78424596  0.41800145  0.38501270  1
  Al  Al20  1  0.88272037  0.53522840  0.12304960  1
  Al  Al21  1  0.44299920  0.43358522  0.80666889  1
  Al  Al22  1  0.55328245  0.53868723  0.57054269  1
  Al  Al23  1  0.11256362  0.76405152  0.30781507  1
  Al  Al24  1  0.22997621  0.86302854  0.05176954  1
  Al  Al25  1  0.77024843  0.76835211  0.80679133  1
  Al  Al26  1  0.89072683  0.87722120  0.55661776  1
  Al  Al27  1  0.44373299  0.76042201  0.31163910  1
  Al  Al28  1  0.55276210  0.86945096  0.05309214  1
  Al  Al29  1  0.11689709  0.75968705  0.80666860  1
  Al  Al30  1  0.22199928  0.86997031  0.57054238  1
  Al  Al31  1  0.77268115  0.76663059  0.30947721  1
  Al  Al32  1  0.88834909  0.87219700  0.05572156  1
  Al  Al33  1  0.55484609  0.87153322  0.56154112  1
  B  B34  1  0.89171035  0.20839819  0.63535362  1
  B  B35  1  0.44376532  0.76045245  0.80345563  1
  N  N36  1  0.21976434  0.19891108  0.32184985  1
  N  N37  1  0.10609224  0.09522498  0.05720533  1
  N  N38  1  0.89505818  0.21174568  0.79747340  1
  N  N39  1  0.78798261  0.10467087  0.61147582  1
  N  N40  1  0.55518065  0.20688648  0.36737550  1
  N  N41  1  0.44955701  0.08927605  0.11465400  1
  N  N42  1  0.22395186  0.20414756  0.81854397  1
  N  N43  1  0.08226122  0.10930655  0.57765099  1
  N  N44  1  0.89081793  0.20750704  0.31217147  1
  N  N45  1  0.77408540  0.09077274  0.11499451  1
  N  N46  1  0.55828934  0.20709583  0.86591138  1
  N  N47  1  0.45130634  0.09226815  0.61483740  1
  N  N48  1  0.22433315  0.54102192  0.36536952  1
  N  N49  1  0.11154563  0.42823571  0.11080615  1
  N  N50  1  0.88746130  0.54063917  0.81854376  1
  N  N51  1  0.79261908  0.39894891  0.57765109  1
  N  N52  1  0.55147524  0.54273196  0.37732917  1
  N  N53  1  0.44609639  0.42808352  0.11697606  1
  N  N54  1  0.22427353  0.54096086  0.87074786  1
  N  N55  1  0.11316003  0.42984646  0.60390147  1
  N  N56  1  0.88222056  0.53645362  0.32184988  1
  N  N57  1  0.77853732  0.42277958  0.05720480  1
  N  N58  1  0.53890477  0.56739667  0.85715272  1
  N  N59  1  0.44238009  0.42718446  0.61952386  1
  N  N60  1  0.22604329  0.86816458  0.37732874  1
  N  N61  1  0.11139550  0.76278429  0.11697623  1
  N  N62  1  0.89040842  0.87497689  0.86591148  1
  N  N63  1  0.77558136  0.76799326  0.61483721  1
  N  N64  1  0.55439213  0.87108084  0.37227561  1
  N  N65  1  0.44401594  0.76070324  0.12291879  1
  N  N66  1  0.25070919  0.85559183  0.85715301  1
  N  N67  1  0.11049640  0.75906788  0.61952346  1
  N  N68  1  0.89019772  0.87186946  0.36737523  1
  N  N69  1  0.77258750  0.76624511  0.11465375  1
  N  N70  1  0.54368386  0.86037090  0.86174471  1
  N  N71  1  0.44540026  0.76208793  0.64004671  1
