# generated using pymatgen
data_Al17BN18
_symmetry_space_group_name_H-M   'P 1'
_cell_length_a   9.33181289
_cell_length_b   9.32819442
_cell_length_c   10.07008244
_cell_angle_alpha   90.17565234
_cell_angle_beta   90.13157164
_cell_angle_gamma   60.30148582
_symmetry_Int_Tables_number   1
_chemical_formula_structural   Al17BN18
_chemical_formula_sum   'Al34 B2 N36'
_cell_volume   761.44129893
_cell_formula_units_Z   2
loop_
 _symmetry_equiv_pos_site_id
 _symmetry_equiv_pos_as_xyz
  1  'x, y, z'
loop_
 _atom_site_type_symbol
 _atom_site_label
 _atom_site_symmetry_multiplicity
 _atom_site_fract_x
 _atom_site_fract_y
 _atom_site_fract_z
 _atom_site_occupancy
  Al  Al0  1  0.10342009  0.10382992  0.40554976  1
  Al  Al1  1  0.22080685  0.20309198  0.14945850  1
  Al  Al2  1  0.77838229  0.09520740  0.89618176  1
  Al  Al3  1  0.44470348  0.09383207  0.40175959  1
  Al  Al4  1  0.55938781  0.20244667  0.14804202  1
  Al  Al5  1  0.11154172  0.09652820  0.88743886  1
  Al  Al6  1  0.21638217  0.20685033  0.65081512  1
  Al  Al7  1  0.78091567  0.09718197  0.40449076  1
  Al  Al8  1  0.88936147  0.20654188  0.14586843  1
  Al  Al9  1  0.44259305  0.08921868  0.90119699  1
  Al  Al10  1  0.56277595  0.19870526  0.65031601  1
  Al  Al11  1  0.11127699  0.42843449  0.39913719  1
  Al  Al12  1  0.22235770  0.53635280  0.14544656  1
  Al  Al13  1  0.78061780  0.42785968  0.88673188  1
  Al  Al14  1  0.89072029  0.53316040  0.65095699  1
  Al  Al15  1  0.44958435  0.43004963  0.34756834  1
  Al  Al16  1  0.54920107  0.54835283  0.07242883  1
  Al  Al17  1  0.11072356  0.42743688  0.90326407  1
  Al  Al18  1  0.21835212  0.53443773  0.64740797  1
  Al  Al19  1  0.78730047  0.42017589  0.40628392  1
  Al  Al20  1  0.88649495  0.53749683  0.14944893  1
  Al  Al21  1  0.44618831  0.43221837  0.83936157  1
  Al  Al22  1  0.55536222  0.53627444  0.59329597  1
  Al  Al23  1  0.11393609  0.76834929  0.33479340  1
  Al  Al24  1  0.23190003  0.86519122  0.07306447  1
  Al  Al25  1  0.77266020  0.75930827  0.90092270  1
  Al  Al26  1  0.88172581  0.87973786  0.65023618  1
  Al  Al27  1  0.44324789  0.75926133  0.33393160  1
  Al  Al28  1  0.55853536  0.87532778  0.15056649  1
  Al  Al29  1  0.11624117  0.76367059  0.83397004  1
  Al  Al30  1  0.21911889  0.87097958  0.59030447  1
  Al  Al31  1  0.77757768  0.76166540  0.40176972  1
  Al  Al32  1  0.88332330  0.87738168  0.14760797  1
  Al  Al33  1  0.55464334  0.87173903  0.65583425  1
  B  B34  1  0.88994674  0.20591414  0.65424923  1
  B  B35  1  0.44162620  0.75850808  0.82186037  1
  N  N36  1  0.22181150  0.20446700  0.34069135  1
  N  N37  1  0.10742575  0.09837596  0.08067967  1
  N  N38  1  0.88831137  0.20418376  0.81774106  1
  N  N39  1  0.78969959  0.10635759  0.59578794  1
  N  N40  1  0.56045749  0.20060449  0.34338071  1
  N  N41  1  0.44333402  0.09486839  0.09053846  1
  N  N42  1  0.22290107  0.20752771  0.83832776  1
  N  N43  1  0.08270817  0.11090138  0.60027653  1
  N  N44  1  0.88927360  0.20623597  0.33479679  1
  N  N45  1  0.77849697  0.09598162  0.08561551  1
  N  N46  1  0.55788145  0.19814307  0.84204587  1
  N  N47  1  0.44280569  0.09150847  0.59153529  1
  N  N48  1  0.22127330  0.53809565  0.34384853  1
  N  N49  1  0.10968460  0.42649274  0.09200237  1
  N  N50  1  0.89132545  0.53957501  0.83824450  1
  N  N51  1  0.79492104  0.39918411  0.60106688  1
  N  N52  1  0.55539761  0.54460397  0.40158216  1
  N  N53  1  0.44953013  0.42943139  0.12738959  1
  N  N54  1  0.21897305  0.53603710  0.84586914  1
  N  N55  1  0.10941394  0.42593051  0.58734909  1
  N  N56  1  0.88768299  0.53856132  0.34073465  1
  N  N57  1  0.78209187  0.42418154  0.08009468  1
  N  N58  1  0.54138598  0.56762876  0.87846050  1
  N  N59  1  0.44529044  0.42518691  0.63420785  1
  N  N60  1  0.22737395  0.87150183  0.39974597  1
  N  N61  1  0.11339717  0.76704749  0.13550159  1
  N  N62  1  0.88177840  0.87455472  0.84275575  1
  N  N63  1  0.77480499  0.75959205  0.59168416  1
  N  N64  1  0.55926803  0.87563918  0.34239539  1
  N  N65  1  0.44274594  0.75891548  0.14503712  1
  N  N66  1  0.25117555  0.85695169  0.88023871  1
  N  N67  1  0.10899916  0.76243950  0.63803707  1
  N  N68  1  0.88335209  0.87761515  0.34291958  1
  N  N69  1  0.77805912  0.75986414  0.09018480  1
  N  N70  1  0.54534179  0.86200164  0.84617588  1
  N  N71  1  0.43762717  0.75583815  0.66013192  1
