# generated using pymatgen
data_Al17BN18
_symmetry_space_group_name_H-M   'P 1'
_cell_length_a   9.30066945
_cell_length_b   9.31626663
_cell_length_c   10.17499951
_cell_angle_alpha   90.08284823
_cell_angle_beta   90.05818865
_cell_angle_gamma   60.12148182
_symmetry_Int_Tables_number   1
_chemical_formula_structural   Al17BN18
_chemical_formula_sum   'Al34 B2 N36'
_cell_volume   764.45337308
_cell_formula_units_Z   2
loop_
 _symmetry_equiv_pos_site_id
 _symmetry_equiv_pos_as_xyz
  1  'x, y, z'
loop_
 _atom_site_type_symbol
 _atom_site_label
 _atom_site_symmetry_multiplicity
 _atom_site_fract_x
 _atom_site_fract_y
 _atom_site_fract_z
 _atom_site_occupancy
  Al  Al0  1  0.10107066  0.10138698  0.39653468  1
  Al  Al1  1  0.22380346  0.20007778  0.13844292  1
  Al  Al2  1  0.77893773  0.09480316  0.81207687  1
  Al  Al3  1  0.43763182  0.09660591  0.39139419  1
  Al  Al4  1  0.55886957  0.20838264  0.06714566  1
  Al  Al5  1  0.11391718  0.09559162  0.87836382  1
  Al  Al6  1  0.21692935  0.20909340  0.64022498  1
  Al  Al7  1  0.77370868  0.09106148  0.31777202  1
  Al  Al8  1  0.89182588  0.20683454  0.13566690  1
  Al  Al9  1  0.44026668  0.09292149  0.88130185  1
  Al  Al10  1  0.56337693  0.21111586  0.57070418  1
  Al  Al11  1  0.10715912  0.42532607  0.38544696  1
  Al  Al12  1  0.22433742  0.54163005  0.07358405  1
  Al  Al13  1  0.77877216  0.43046094  0.87849390  1
  Al  Al14  1  0.89445233  0.52841139  0.63942223  1
  Al  Al15  1  0.44651486  0.42973800  0.31987114  1
  Al  Al16  1  0.54713436  0.54628639  0.06326788  1
  Al  Al17  1  0.10860917  0.42562025  0.89153916  1
  Al  Al18  1  0.22416315  0.54253972  0.56712816  1
  Al  Al19  1  0.78386775  0.41835845  0.39655136  1
  Al  Al20  1  0.88907152  0.53020914  0.13818543  1
  Al  Al21  1  0.44146920  0.43482644  0.81834817  1
  Al  Al22  1  0.55365683  0.53927515  0.58196725  1
  Al  Al23  1  0.11210713  0.76403966  0.32012730  1
  Al  Al24  1  0.22927189  0.86469938  0.06357051  1
  Al  Al25  1  0.77137265  0.76719100  0.81787249  1
  Al  Al26  1  0.89014016  0.87700224  0.56801698  1
  Al  Al27  1  0.44364988  0.76028332  0.32374982  1
  Al  Al28  1  0.55662915  0.86180941  0.06578295  1
  Al  Al29  1  0.11680922  0.75860954  0.81914888  1
  Al  Al30  1  0.22129481  0.87170894  0.58300201  1
  Al  Al31  1  0.77297278  0.76596794  0.31959837  1
  Al  Al32  1  0.88798923  0.87221396  0.06751447  1
  Al  Al33  1  0.55672349  0.86589137  0.57760386  1
  B  B34  1  0.89376145  0.20874983  0.64672793  1
  B  B35  1  0.44514378  0.75928660  0.81658412  1
  N  N36  1  0.22064884  0.20181683  0.32705524  1
  N  N37  1  0.10747170  0.09704463  0.06871422  1
  N  N38  1  0.89592474  0.21157648  0.80798016  1
  N  N39  1  0.78930681  0.10357069  0.62415963  1
  N  N40  1  0.55700766  0.20994132  0.38024580  1
  N  N41  1  0.44078241  0.09378010  0.07532058  1
  N  N42  1  0.22244574  0.20906728  0.82474205  1
  N  N43  1  0.08319605  0.11128554  0.58913972  1
  N  N44  1  0.89080866  0.20735594  0.32344185  1
  N  N45  1  0.77479992  0.09020134  0.12856680  1
  N  N46  1  0.56103036  0.21097155  0.87617909  1
  N  N47  1  0.43902671  0.09839437  0.58509482  1
  N  N48  1  0.22434999  0.54220920  0.37633799  1
  N  N49  1  0.10921885  0.42295734  0.08143452  1
  N  N50  1  0.89376496  0.53595193  0.82703394  1
  N  N51  1  0.79325983  0.39967448  0.58895669  1
  N  N52  1  0.55093450  0.54279928  0.39029501  1
  N  N53  1  0.44689671  0.42851539  0.13112460  1
  N  N54  1  0.22477654  0.54199683  0.88359223  1
  N  N55  1  0.10879527  0.42545841  0.57456047  1
  N  N56  1  0.88719938  0.53207340  0.32832710  1
  N  N57  1  0.77981536  0.42284870  0.06821402  1
  N  N58  1  0.53908920  0.56681211  0.87010319  1
  N  N59  1  0.44148650  0.42904100  0.63307041  1
  N  N60  1  0.22549097  0.86879657  0.39061202  1
  N  N61  1  0.11079014  0.76420849  0.13077564  1
  N  N62  1  0.88950465  0.87495686  0.87926458  1
  N  N63  1  0.77732607  0.76664419  0.62901560  1
  N  N64  1  0.55754315  0.86468542  0.38548589  1
  N  N65  1  0.44353882  0.75987000  0.13628697  1
  N  N66  1  0.25022836  0.85610902  0.87016491  1
  N  N67  1  0.10979428  0.75985131  0.63300330  1
  N  N68  1  0.88923924  0.87150887  0.38029503  1
  N  N69  1  0.77462525  0.76421541  0.12788787  1
  N  N70  1  0.54588725  0.85404566  0.87246259  1
  N  N71  1  0.44466128  0.76111749  0.65373171  1
