# generated using pymatgen
data_Al17BN18
_symmetry_space_group_name_H-M   'P 1'
_cell_length_a   9.33336099
_cell_length_b   9.32883942
_cell_length_c   10.06472155
_cell_angle_alpha   90.17702013
_cell_angle_beta   90.12697448
_cell_angle_gamma   60.29239837
_symmetry_Int_Tables_number   1
_chemical_formula_structural   Al17BN18
_chemical_formula_sum   'Al34 B2 N36'
_cell_volume   761.14596370
_cell_formula_units_Z   2
loop_
 _symmetry_equiv_pos_site_id
 _symmetry_equiv_pos_as_xyz
  1  'x, y, z'
loop_
 _atom_site_type_symbol
 _atom_site_label
 _atom_site_symmetry_multiplicity
 _atom_site_fract_x
 _atom_site_fract_y
 _atom_site_fract_z
 _atom_site_occupancy
  Al  Al0  1  0.10345182  0.10377479  0.40549298  1
  Al  Al1  1  0.22084932  0.20313343  0.14932553  1
  Al  Al2  1  0.77837421  0.09523060  0.89621176  1
  Al  Al3  1  0.44465420  0.09363608  0.40166929  1
  Al  Al4  1  0.55868564  0.20384974  0.14795727  1
  Al  Al5  1  0.11158666  0.09647492  0.88743548  1
  Al  Al6  1  0.21640435  0.20687265  0.65073268  1
  Al  Al7  1  0.78108548  0.09710876  0.40441851  1
  Al  Al8  1  0.88928314  0.20657583  0.14579320  1
  Al  Al9  1  0.44260204  0.08919500  0.90124448  1
  Al  Al10  1  0.56256541  0.19906735  0.65038715  1
  Al  Al11  1  0.11109236  0.42837532  0.39903630  1
  Al  Al12  1  0.22352847  0.53575722  0.14545564  1
  Al  Al13  1  0.78072753  0.42787486  0.88657573  1
  Al  Al14  1  0.89086298  0.53318577  0.65092774  1
  Al  Al15  1  0.44850410  0.42929456  0.35754041  1
  Al  Al16  1  0.54937894  0.54843712  0.07236008  1
  Al  Al17  1  0.11067898  0.42743402  0.90332458  1
  Al  Al18  1  0.21859871  0.53423144  0.64774610  1
  Al  Al19  1  0.78739299  0.42017327  0.40627930  1
  Al  Al20  1  0.88660251  0.53751748  0.14934668  1
  Al  Al21  1  0.44578079  0.43179764  0.84471214  1
  Al  Al22  1  0.55584440  0.53652124  0.59432996  1
  Al  Al23  1  0.11394534  0.76841961  0.33453859  1
  Al  Al24  1  0.23187418  0.86510380  0.07310555  1
  Al  Al25  1  0.77266669  0.75933122  0.90090378  1
  Al  Al26  1  0.88173119  0.87975933  0.65014379  1
  Al  Al27  1  0.44327471  0.75917372  0.33377538  1
  Al  Al28  1  0.55853785  0.87541976  0.15046720  1
  Al  Al29  1  0.11622774  0.76374274  0.83381399  1
  Al  Al30  1  0.21905872  0.87099555  0.59027597  1
  Al  Al31  1  0.77754958  0.76167111  0.40174898  1
  Al  Al32  1  0.88329610  0.87740373  0.14748721  1
  Al  Al33  1  0.55463393  0.87188017  0.65577516  1
  B  B34  1  0.89001070  0.20586169  0.65428447  1
  B  B35  1  0.44173298  0.75851858  0.82168345  1
  N  N36  1  0.22181724  0.20444483  0.34068197  1
  N  N37  1  0.10743535  0.09834508  0.08071310  1
  N  N38  1  0.88836221  0.20411918  0.81777061  1
  N  N39  1  0.78966409  0.10639979  0.59575767  1
  N  N40  1  0.56018697  0.20109447  0.34321702  1
  N  N41  1  0.44343487  0.09489547  0.09063928  1
  N  N42  1  0.22291788  0.20751911  0.83834124  1
  N  N43  1  0.08272889  0.11088905  0.60027438  1
  N  N44  1  0.88931128  0.20623462  0.33481318  1
  N  N45  1  0.77833705  0.09606817  0.08572535  1
  N  N46  1  0.55785125  0.19819460  0.84152870  1
  N  N47  1  0.44282636  0.09151939  0.59145869  1
  N  N48  1  0.22164654  0.53779606  0.34348877  1
  N  N49  1  0.10971060  0.42663500  0.09210167  1
  N  N50  1  0.89142317  0.53959623  0.83824960  1
  N  N51  1  0.79508794  0.39913643  0.60119342  1
  N  N52  1  0.55578221  0.54493810  0.40173137  1
  N  N53  1  0.44866691  0.42877051  0.11974711  1
  N  N54  1  0.21884782  0.53592204  0.84503895  1
  N  N55  1  0.10941694  0.42598917  0.58725501  1
  N  N56  1  0.88770496  0.53858993  0.34072495  1
  N  N57  1  0.78215643  0.42424976  0.08004939  1
  N  N58  1  0.54172834  0.56783672  0.87759416  1
  N  N59  1  0.44481595  0.42478208  0.62979440  1
  N  N60  1  0.22741004  0.87141279  0.39964189  1
  N  N61  1  0.11344081  0.76687602  0.13556966  1
  N  N62  1  0.88179237  0.87456758  0.84277036  1
  N  N63  1  0.77480100  0.75959605  0.59169507  1
  N  N64  1  0.55929573  0.87560005  0.34236670  1
  N  N65  1  0.44279074  0.75892635  0.14493485  1
  N  N66  1  0.25120652  0.85685269  0.88020822  1
  N  N67  1  0.10899626  0.76241008  0.63789427  1
  N  N68  1  0.88334652  0.87758174  0.34294654  1
  N  N69  1  0.77805990  0.75987402  0.09018673  1
  N  N70  1  0.54538648  0.86208804  0.84616717  1
  N  N71  1  0.43747121  0.75619269  0.66005784  1
