# generated using pymatgen
data_Al17BN18
_symmetry_space_group_name_H-M   'P 1'
_cell_length_a   9.31604645
_cell_length_b   9.32334895
_cell_length_c   10.11133063
_cell_angle_alpha   90.05866248
_cell_angle_beta   90.09082323
_cell_angle_gamma   60.15077150
_symmetry_Int_Tables_number   1
_chemical_formula_structural   Al17BN18
_chemical_formula_sum   'Al34 B2 N36'
_cell_volume   761.72774628
_cell_formula_units_Z   2
loop_
 _symmetry_equiv_pos_site_id
 _symmetry_equiv_pos_as_xyz
  1  'x, y, z'
loop_
 _atom_site_type_symbol
 _atom_site_label
 _atom_site_symmetry_multiplicity
 _atom_site_fract_x
 _atom_site_fract_y
 _atom_site_fract_z
 _atom_site_occupancy
  Al  Al0  1  0.10341587  0.10211575  0.39195912  1
  Al  Al1  1  0.22137556  0.20254809  0.13610417  1
  Al  Al2  1  0.77680715  0.09847268  0.87794504  1
  Al  Al3  1  0.44564094  0.09426212  0.38819688  1
  Al  Al4  1  0.56044354  0.20069015  0.13631541  1
  Al  Al5  1  0.11158345  0.09532955  0.87283560  1
  Al  Al6  1  0.21601989  0.20825729  0.63662126  1
  Al  Al7  1  0.78005136  0.09821749  0.39142137  1
  Al  Al8  1  0.89000081  0.20638154  0.13251101  1
  Al  Al9  1  0.44289334  0.08965192  0.88759384  1
  Al  Al10  1  0.56024566  0.20071788  0.63742025  1
  Al  Al11  1  0.10849931  0.42526782  0.38171142  1
  Al  Al12  1  0.22698539  0.54028572  0.07061026  1
  Al  Al13  1  0.77909636  0.42780395  0.87361207  1
  Al  Al14  1  0.89180294  0.53155503  0.63719172  1
  Al  Al15  1  0.44535596  0.43520298  0.31853648  1
  Al  Al16  1  0.54959925  0.54831667  0.05976951  1
  Al  Al17  1  0.10850693  0.42428605  0.88867830  1
  Al  Al18  1  0.22424268  0.54119095  0.56389241  1
  Al  Al19  1  0.78576619  0.42013547  0.39228993  1
  Al  Al20  1  0.88686510  0.53678112  0.13635602  1
  Al  Al21  1  0.43875924  0.43801096  0.81697485  1
  Al  Al22  1  0.55441006  0.53607605  0.57774363  1
  Al  Al23  1  0.11226447  0.76519692  0.31827307  1
  Al  Al24  1  0.23343152  0.86557199  0.05931946  1
  Al  Al25  1  0.77093786  0.75765599  0.88398139  1
  Al  Al26  1  0.88536704  0.87720340  0.62167599  1
  Al  Al27  1  0.44250748  0.75974432  0.32112358  1
  Al  Al28  1  0.55974554  0.87550507  0.13840189  1
  Al  Al29  1  0.11973986  0.75612198  0.81696220  1
  Al  Al30  1  0.21898324  0.87119942  0.57701436  1
  Al  Al31  1  0.77758527  0.76124155  0.38956188  1
  Al  Al32  1  0.89038818  0.87312166  0.10024601  1
  Al  Al33  1  0.55338085  0.87204068  0.64302257  1
  B  B34  1  0.88859856  0.20740110  0.64033581  1
  B  B35  1  0.44010170  0.75816153  0.80898813  1
  N  N36  1  0.22249458  0.20235716  0.32590044  1
  N  N37  1  0.10790859  0.09782179  0.06613315  1
  N  N38  1  0.88826601  0.20564801  0.80317491  1
  N  N39  1  0.78771387  0.10994667  0.58426102  1
  N  N40  1  0.55959192  0.20210107  0.32926970  1
  N  N41  1  0.44425240  0.09503512  0.07629131  1
  N  N42  1  0.22310951  0.20699856  0.82360854  1
  N  N43  1  0.08261743  0.11057688  0.58649074  1
  N  N44  1  0.88902632  0.20638527  0.32052402  1
  N  N45  1  0.77744235  0.09936384  0.06878854  1
  N  N46  1  0.55508362  0.20102904  0.82786280  1
  N  N47  1  0.44297912  0.09207021  0.57737298  1
  N  N48  1  0.22478757  0.54257028  0.37343155  1
  N  N49  1  0.10887263  0.42460247  0.08052996  1
  N  N50  1  0.89126933  0.53803336  0.82349469  1
  N  N51  1  0.79383199  0.39957732  0.58656945  1
  N  N52  1  0.55363190  0.54359117  0.38739601  1
  N  N53  1  0.44715053  0.43360553  0.12692797  1
  N  N54  1  0.22419647  0.54065112  0.88106057  1
  N  N55  1  0.10823738  0.42494710  0.57279333  1
  N  N56  1  0.88562603  0.53890694  0.32587444  1
  N  N57  1  0.78210855  0.42393958  0.06631598  1
  N  N58  1  0.53974772  0.56707953  0.86658919  1
  N  N59  1  0.43923256  0.43082136  0.62824126  1
  N  N60  1  0.22634780  0.87008622  0.38647053  1
  N  N61  1  0.11708370  0.76286194  0.12586791  1
  N  N62  1  0.88645791  0.87195112  0.83953718  1
  N  N63  1  0.77330323  0.75759655  0.58034178  1
  N  N64  1  0.55935724  0.87571083  0.32880508  1
  N  N65  1  0.44364571  0.75921813  0.13221138  1
  N  N66  1  0.25030989  0.85604799  0.86656540  1
  N  N67  1  0.11388093  0.75609512  0.62955902  1
  N  N68  1  0.88835198  0.87474262  0.35103723  1
  N  N69  1  0.77762582  0.75776306  0.07384123  1
  N  N70  1  0.54369085  0.86272983  0.83223516  1
  N  N71  1  0.43750650  0.75515758  0.64706233  1
