# generated using pymatgen
data_Al17BN18
_symmetry_space_group_name_H-M   'P 1'
_cell_length_a   9.31343930
_cell_length_b   9.30871459
_cell_length_c   9.99079174
_cell_angle_alpha   89.79030332
_cell_angle_beta   90.04315348
_cell_angle_gamma   60.02176333
_symmetry_Int_Tables_number   1
_chemical_formula_structural   Al17BN18
_chemical_formula_sum   'Al34 B2 N36'
_cell_volume   750.27539319
_cell_formula_units_Z   2
loop_
 _symmetry_equiv_pos_site_id
 _symmetry_equiv_pos_as_xyz
  1  'x, y, z'
loop_
 _atom_site_type_symbol
 _atom_site_label
 _atom_site_symmetry_multiplicity
 _atom_site_fract_x
 _atom_site_fract_y
 _atom_site_fract_z
 _atom_site_occupancy
  Al  Al0  1  0.11282484  0.09207493  0.30725903  1
  Al  Al1  1  0.22304057  0.20479552  0.05792454  1
  Al  Al2  1  0.78027671  0.09659548  0.81157490  1
  Al  Al3  1  0.44490170  0.09328836  0.30996439  1
  Al  Al4  1  0.55512691  0.20504028  0.05779577  1
  Al  Al5  1  0.11189283  0.09337507  0.81192171  1
  Al  Al6  1  0.21584795  0.20795011  0.55879612  1
  Al  Al7  1  0.77772143  0.09355502  0.30677592  1
  Al  Al8  1  0.89011744  0.20236657  0.07330367  1
  Al  Al9  1  0.44319650  0.09051970  0.80809719  1
  Al  Al10  1  0.55965464  0.20840026  0.55946765  1
  Al  Al11  1  0.11101715  0.42689059  0.30969400  1
  Al  Al12  1  0.22177289  0.53919495  0.06035454  1
  Al  Al13  1  0.77564086  0.42905616  0.84204138  1
  Al  Al14  1  0.89159021  0.53318890  0.56284014  1
  Al  Al15  1  0.44593584  0.42793981  0.31022524  1
  Al  Al16  1  0.54803779  0.54683505  0.05670442  1
  Al  Al17  1  0.11263835  0.42811149  0.80829297  1
  Al  Al18  1  0.22233114  0.53964334  0.55740701  1
  Al  Al19  1  0.77825514  0.42402565  0.32885258  1
  Al  Al20  1  0.88965854  0.54109392  0.06000745  1
  Al  Al21  1  0.44159381  0.43333591  0.80889760  1
  Al  Al22  1  0.55870728  0.53533501  0.57032584  1
  Al  Al23  1  0.11126129  0.76330161  0.30921204  1
  Al  Al24  1  0.22794495  0.86959204  0.05361591  1
  Al  Al25  1  0.77317339  0.76073359  0.80764230  1
  Al  Al26  1  0.89116675  0.87719123  0.55896174  1
  Al  Al27  1  0.44412252  0.76092084  0.31244160  1
  Al  Al28  1  0.55270281  0.86928182  0.05615771  1
  Al  Al29  1  0.11616899  0.75931012  0.80862284  1
  Al  Al30  1  0.21736036  0.87639907  0.56539097  1
  Al  Al31  1  0.77631128  0.76146484  0.31070782  1
  Al  Al32  1  0.88794477  0.87187143  0.05723098  1
  Al  Al33  1  0.55391685  0.87166962  0.56407360  1
  B  B34  1  0.88796950  0.20860632  0.59626677  1
  B  B35  1  0.44315881  0.76232953  0.80490996  1
  N  N36  1  0.22254023  0.20432050  0.36921538  1
  N  N37  1  0.11864459  0.08855580  0.11513256  1
  N  N38  1  0.89284998  0.20000433  0.87809824  1
  N  N39  1  0.79258177  0.10989723  0.61681179  1
  N  N40  1  0.55618506  0.20485429  0.36949999  1
  N  N41  1  0.44536974  0.09239024  0.11716332  1
  N  N42  1  0.22221851  0.20597235  0.86691208  1
  N  N43  1  0.08163929  0.11003573  0.61792649  1
  N  N44  1  0.89123404  0.20158632  0.34260803  1
  N  N45  1  0.77448162  0.09053853  0.11629070  1
  N  N46  1  0.55552508  0.20578885  0.86593777  1
  N  N47  1  0.44384025  0.09574866  0.61808548  1
  N  N48  1  0.22233817  0.53923478  0.36712214  1
  N  N49  1  0.11148712  0.42687683  0.11932770  1
  N  N50  1  0.89218160  0.54089696  0.86776361  1
  N  N51  1  0.79346765  0.39784735  0.61064103  1
  N  N52  1  0.55349232  0.54094851  0.37715930  1
  N  N53  1  0.44498040  0.42804673  0.11809073  1
  N  N54  1  0.22214467  0.53885909  0.87023546  1
  N  N55  1  0.11296683  0.42799218  0.61875466  1
  N  N56  1  0.88935116  0.53911211  0.37113079  1
  N  N57  1  0.77264703  0.43251398  0.09867340  1
  N  N58  1  0.53922890  0.56611109  0.86059680  1
  N  N59  1  0.44266831  0.42809127  0.62018164  1
  N  N60  1  0.22401874  0.87166945  0.37473758  1
  N  N61  1  0.11152272  0.76304009  0.11642068  1
  N  N62  1  0.88868453  0.87182827  0.86551005  1
  N  N63  1  0.77833206  0.76180867  0.61809899  1
  N  N64  1  0.55472524  0.87123195  0.37290120  1
  N  N65  1  0.44310518  0.76165219  0.12364672  1
  N  N66  1  0.24683426  0.86072551  0.85900732  1
  N  N67  1  0.11128486  0.76021509  0.61936809  1
  N  N68  1  0.88876611  0.87181324  0.36921833  1
  N  N69  1  0.77561982  0.76234989  0.11828656  1
  N  N70  1  0.54300980  0.85959842  0.86186059  1
  N  N71  1  0.44337600  0.76242396  0.63975954  1
