# generated using pymatgen
data_Al17BN18
_symmetry_space_group_name_H-M   'P 1'
_cell_length_a   9.32558191
_cell_length_b   9.32255677
_cell_length_c   10.01780784
_cell_angle_alpha   89.74285402
_cell_angle_beta   89.88974429
_cell_angle_gamma   60.07434431
_symmetry_Int_Tables_number   1
_chemical_formula_structural   Al17BN18
_chemical_formula_sum   'Al34 B2 N36'
_cell_volume   754.80499345
_cell_formula_units_Z   2
loop_
 _symmetry_equiv_pos_site_id
 _symmetry_equiv_pos_as_xyz
  1  'x, y, z'
loop_
 _atom_site_type_symbol
 _atom_site_label
 _atom_site_symmetry_multiplicity
 _atom_site_fract_x
 _atom_site_fract_y
 _atom_site_fract_z
 _atom_site_occupancy
  Al  Al0  1  0.11511956  0.09095484  0.30979514  1
  Al  Al1  1  0.22516526  0.20604226  0.05957029  1
  Al  Al2  1  0.78079882  0.09718861  0.81023880  1
  Al  Al3  1  0.44556507  0.09322395  0.30982136  1
  Al  Al4  1  0.55552861  0.20470832  0.05552753  1
  Al  Al5  1  0.11215844  0.09272593  0.83291676  1
  Al  Al6  1  0.21506211  0.20750641  0.55940551  1
  Al  Al7  1  0.77527016  0.09182198  0.30378904  1
  Al  Al8  1  0.88694786  0.20736684  0.09849343  1
  Al  Al9  1  0.44356533  0.09024350  0.80723772  1
  Al  Al10  1  0.55955984  0.20806251  0.55926296  1
  Al  Al11  1  0.11035113  0.42782692  0.30964000  1
  Al  Al12  1  0.22173339  0.53899609  0.05966286  1
  Al  Al13  1  0.77540373  0.42964544  0.87375736  1
  Al  Al14  1  0.89399830  0.53558109  0.56337368  1
  Al  Al15  1  0.44596825  0.42819875  0.30954187  1
  Al  Al16  1  0.54458410  0.54873475  0.05702448  1
  Al  Al17  1  0.11266280  0.42843869  0.80806591  1
  Al  Al18  1  0.22274855  0.53904884  0.55737218  1
  Al  Al19  1  0.78198905  0.41663038  0.37130284  1
  Al  Al20  1  0.89068337  0.54364058  0.05998926  1
  Al  Al21  1  0.44199074  0.43317052  0.80866474  1
  Al  Al22  1  0.55423405  0.53745733  0.57116213  1
  Al  Al23  1  0.11132713  0.76216453  0.30928100  1
  Al  Al24  1  0.22920377  0.86634031  0.05579651  1
  Al  Al25  1  0.77317684  0.76088545  0.80711473  1
  Al  Al26  1  0.89152454  0.87681931  0.55877876  1
  Al  Al27  1  0.44534413  0.76002677  0.31243897  1
  Al  Al28  1  0.55289165  0.86958226  0.05584743  1
  Al  Al29  1  0.11604081  0.75910621  0.80837954  1
  Al  Al30  1  0.21650350  0.87698114  0.56634974  1
  Al  Al31  1  0.77633738  0.76107698  0.30992239  1
  Al  Al32  1  0.88789024  0.87259195  0.05534567  1
  Al  Al33  1  0.55360430  0.87167492  0.56389029  1
  B  B34  1  0.89161409  0.20470793  0.59976045  1
  B  B35  1  0.44364632  0.76076236  0.80520964  1
  N  N36  1  0.22270136  0.20521450  0.36884356  1
  N  N37  1  0.12123637  0.08724527  0.10789920  1
  N  N38  1  0.89027994  0.20136962  0.87135563  1
  N  N39  1  0.79291925  0.10911673  0.61416997  1
  N  N40  1  0.55633266  0.20545733  0.36962604  1
  N  N41  1  0.44645517  0.09235369  0.11776808  1
  N  N42  1  0.22426103  0.20768925  0.86857620  1
  N  N43  1  0.08044544  0.10972189  0.60925669  1
  N  N44  1  0.88801574  0.20748193  0.30884562  1
  N  N45  1  0.77212251  0.08890779  0.11433706  1
  N  N46  1  0.55550563  0.20558790  0.86430725  1
  N  N47  1  0.44342473  0.09550740  0.61750334  1
  N  N48  1  0.22259492  0.53877008  0.36745188  1
  N  N49  1  0.11105541  0.42770837  0.12005514  1
  N  N50  1  0.89345738  0.54245155  0.86541813  1
  N  N51  1  0.79590924  0.39234829  0.57908581  1
  N  N52  1  0.55068702  0.54220657  0.37736303  1
  N  N53  1  0.44469959  0.42763630  0.11770883  1
  N  N54  1  0.22236985  0.53887417  0.87010251  1
  N  N55  1  0.11362569  0.42734943  0.61909369  1
  N  N56  1  0.89002462  0.54065235  0.37119655  1
  N  N57  1  0.77066221  0.43570873  0.07342565  1
  N  N58  1  0.53768399  0.56723642  0.85834987  1
  N  N59  1  0.44240567  0.42718129  0.62042126  1
  N  N60  1  0.22400307  0.87076106  0.37437019  1
  N  N61  1  0.11094145  0.76199431  0.11708866  1
  N  N62  1  0.88872566  0.87217879  0.86427102  1
  N  N63  1  0.77769043  0.76249674  0.61780602  1
  N  N64  1  0.55479960  0.87137310  0.37287624  1
  N  N65  1  0.44381415  0.76154018  0.12443044  1
  N  N66  1  0.24787309  0.85809998  0.86095969  1
  N  N67  1  0.11139827  0.75938613  0.61930101  1
  N  N68  1  0.88874520  0.87249022  0.36919681  1
  N  N69  1  0.77554302  0.76327873  0.11808940  1
  N  N70  1  0.54295802  0.85975324  0.86182145  1
  N  N71  1  0.44276583  0.76280061  0.63983063  1
