# generated using pymatgen
data_Al17BN18
_symmetry_space_group_name_H-M   'P 1'
_cell_length_a   9.32668638
_cell_length_b   9.33083832
_cell_length_c   10.12947688
_cell_angle_alpha   90.10095596
_cell_angle_beta   90.02887907
_cell_angle_gamma   60.16078277
_symmetry_Int_Tables_number   1
_chemical_formula_structural   Al17BN18
_chemical_formula_sum   'Al34 B2 N36'
_cell_volume   764.65638428
_cell_formula_units_Z   2
loop_
 _symmetry_equiv_pos_site_id
 _symmetry_equiv_pos_as_xyz
  1  'x, y, z'
loop_
 _atom_site_type_symbol
 _atom_site_label
 _atom_site_symmetry_multiplicity
 _atom_site_fract_x
 _atom_site_fract_y
 _atom_site_fract_z
 _atom_site_occupancy
  Al  Al0  1  0.10098968  0.10043635  0.39547278  1
  Al  Al1  1  0.22292796  0.20044933  0.13767395  1
  Al  Al2  1  0.77841203  0.09690257  0.81160182  1
  Al  Al3  1  0.43715955  0.09637362  0.39185366  1
  Al  Al4  1  0.55867896  0.20776485  0.06677950  1
  Al  Al5  1  0.11334086  0.09576829  0.87798089  1
  Al  Al6  1  0.21538550  0.21042124  0.64001681  1
  Al  Al7  1  0.77344153  0.08932306  0.31654650  1
  Al  Al8  1  0.89145740  0.20706344  0.13486243  1
  Al  Al9  1  0.43865729  0.09468083  0.87915068  1
  Al  Al10  1  0.56321340  0.21179952  0.57076870  1
  Al  Al11  1  0.10905262  0.42353063  0.38410131  1
  Al  Al12  1  0.22409901  0.54129560  0.07417698  1
  Al  Al13  1  0.77852978  0.43063461  0.87878765  1
  Al  Al14  1  0.89431318  0.52970346  0.63915215  1
  Al  Al15  1  0.44711215  0.42881071  0.31931597  1
  Al  Al16  1  0.54778501  0.54614295  0.06354529  1
  Al  Al17  1  0.10824428  0.42581064  0.89235368  1
  Al  Al18  1  0.22462051  0.54193048  0.56669048  1
  Al  Al19  1  0.78394832  0.41620405  0.39581122  1
  Al  Al20  1  0.88542974  0.53740000  0.13741327  1
  Al  Al21  1  0.44124305  0.43540881  0.81853855  1
  Al  Al22  1  0.55412830  0.53908360  0.58162630  1
  Al  Al23  1  0.11274343  0.76337930  0.31922773  1
  Al  Al24  1  0.22930096  0.86480064  0.06338302  1
  Al  Al25  1  0.77437969  0.76214787  0.84697355  1
  Al  Al26  1  0.89354985  0.87981338  0.57205204  1
  Al  Al27  1  0.44384797  0.75984257  0.32314058  1
  Al  Al28  1  0.55425642  0.86336498  0.06476786  1
  Al  Al29  1  0.11862121  0.75840074  0.81847999  1
  Al  Al30  1  0.22161949  0.87161174  0.58177513  1
  Al  Al31  1  0.77879659  0.75582465  0.37458309  1
  Al  Al32  1  0.88951936  0.87243905  0.06530133  1
  Al  Al33  1  0.55217878  0.86923826  0.58531546  1
  B  B34  1  0.89339774  0.21024755  0.64650266  1
  B  B35  1  0.44330771  0.76070032  0.81503831  1
  N  N36  1  0.22074225  0.20083398  0.32717339  1
  N  N37  1  0.10716329  0.09674057  0.06881665  1
  N  N38  1  0.89567359  0.21284562  0.80804292  1
  N  N39  1  0.78856424  0.10588577  0.62352667  1
  N  N40  1  0.55699574  0.20883293  0.37961629  1
  N  N41  1  0.43956690  0.09447133  0.07450206  1
  N  N42  1  0.22056937  0.21037481  0.82504599  1
  N  N43  1  0.08316937  0.11119463  0.58878840  1
  N  N44  1  0.89079877  0.20599465  0.32316948  1
  N  N45  1  0.77480065  0.08968844  0.12723692  1
  N  N46  1  0.56062454  0.21125528  0.87516297  1
  N  N47  1  0.43821187  0.10040335  0.58726207  1
  N  N48  1  0.22484521  0.54140838  0.37504402  1
  N  N49  1  0.10848195  0.42330134  0.08317496  1
  N  N50  1  0.89417296  0.53542388  0.82527654  1
  N  N51  1  0.79363456  0.39985408  0.58859836  1
  N  N52  1  0.55179714  0.54195964  0.38912534  1
  N  N53  1  0.44703980  0.42821795  0.13022943  1
  N  N54  1  0.22437162  0.54196409  0.88321405  1
  N  N55  1  0.10892359  0.42550058  0.57395417  1
  N  N56  1  0.88666100  0.53352322  0.32899784  1
  N  N57  1  0.77988186  0.42298071  0.06932336  1
  N  N58  1  0.53921531  0.56735161  0.86971437  1
  N  N59  1  0.44154446  0.42951662  0.63234190  1
  N  N60  1  0.22570105  0.86826754  0.38927939  1
  N  N61  1  0.11105126  0.76425893  0.12992711  1
  N  N62  1  0.89289118  0.87794322  0.87427217  1
  N  N63  1  0.78048400  0.76094647  0.60775422  1
  N  N64  1  0.55273179  0.86642797  0.38756312  1
  N  N65  1  0.44321805  0.76016398  0.13549105  1
  N  N66  1  0.25013482  0.85651188  0.86957337  1
  N  N67  1  0.11224224  0.75885951  0.63234009  1
  N  N68  1  0.89226760  0.87249601  0.38183207  1
  N  N69  1  0.77841244  0.75706324  0.08985806  1
  N  N70  1  0.54091234  0.85781933  0.86635394  1
  N  N71  1  0.44289155  0.76033226  0.65306574  1
