# generated using pymatgen
data_Al17BN18
_symmetry_space_group_name_H-M   'P 1'
_cell_length_a   9.32413287
_cell_length_b   9.32410719
_cell_length_c   10.05513185
_cell_angle_alpha   89.75201561
_cell_angle_beta   89.79127395
_cell_angle_gamma   60.10212918
_symmetry_Int_Tables_number   1
_chemical_formula_structural   Al17BN18
_chemical_formula_sum   'Al34 B2 N36'
_cell_volume   757.83634490
_cell_formula_units_Z   2
loop_
 _symmetry_equiv_pos_site_id
 _symmetry_equiv_pos_as_xyz
  1  'x, y, z'
loop_
 _atom_site_type_symbol
 _atom_site_label
 _atom_site_symmetry_multiplicity
 _atom_site_fract_x
 _atom_site_fract_y
 _atom_site_fract_z
 _atom_site_occupancy
  Al  Al0  1  0.10308806  0.09636476  0.36667638  1
  Al  Al1  1  0.22648174  0.20756534  0.05974101  1
  Al  Al2  1  0.78051882  0.09719229  0.80674890  1
  Al  Al3  1  0.44499581  0.09286328  0.30921542  1
  Al  Al4  1  0.55638796  0.20478409  0.05493113  1
  Al  Al5  1  0.11234647  0.09277855  0.87192208  1
  Al  Al6  1  0.21812458  0.20970847  0.56176243  1
  Al  Al7  1  0.77437489  0.09095526  0.30385207  1
  Al  Al8  1  0.88985196  0.20786023  0.11211574  1
  Al  Al9  1  0.44401596  0.09023863  0.80695782  1
  Al  Al10  1  0.55995600  0.20782791  0.55840760  1
  Al  Al11  1  0.11037905  0.42756948  0.30931674  1
  Al  Al12  1  0.22183589  0.53860384  0.05918595  1
  Al  Al13  1  0.77608999  0.42903957  0.87161158  1
  Al  Al14  1  0.89347211  0.53563705  0.56307487  1
  Al  Al15  1  0.44537989  0.42839893  0.30909510  1
  Al  Al16  1  0.54548258  0.54762521  0.05590910  1
  Al  Al17  1  0.11250212  0.42885533  0.80801165  1
  Al  Al18  1  0.22258169  0.53912884  0.55716432  1
  Al  Al19  1  0.78057535  0.41798591  0.37294800  1
  Al  Al20  1  0.89069427  0.54323855  0.05895302  1
  Al  Al21  1  0.44227960  0.43295791  0.80855832  1
  Al  Al22  1  0.55414419  0.53727332  0.57077472  1
  Al  Al23  1  0.11174274  0.76152748  0.30882836  1
  Al  Al24  1  0.23084938  0.86226174  0.05668664  1
  Al  Al25  1  0.77329975  0.76125368  0.80702109  1
  Al  Al26  1  0.89116809  0.87680366  0.55822957  1
  Al  Al27  1  0.44509766  0.76047604  0.31185948  1
  Al  Al28  1  0.55300464  0.86961961  0.05522749  1
  Al  Al29  1  0.11626484  0.75929548  0.80845215  1
  Al  Al30  1  0.21964741  0.87196761  0.56921182  1
  Al  Al31  1  0.77643202  0.76084022  0.30944198  1
  Al  Al32  1  0.88804395  0.87309594  0.05499900  1
  Al  Al33  1  0.55416432  0.87129954  0.56368405  1
  B  B34  1  0.88998674  0.20553423  0.60314206  1
  B  B35  1  0.44307612  0.76043625  0.80544786  1
  N  N36  1  0.22444532  0.20655847  0.36959069  1
  N  N37  1  0.11487596  0.08954686  0.07329658  1
  N  N38  1  0.89024354  0.20663833  0.84373696  1
  N  N39  1  0.79117052  0.10764914  0.61173819  1
  N  N40  1  0.55598535  0.20564809  0.36896371  1
  N  N41  1  0.44675260  0.09210507  0.11802702  1
  N  N42  1  0.22662433  0.20987208  0.86685663  1
  N  N43  1  0.07706071  0.11063042  0.57576119  1
  N  N44  1  0.88970208  0.20754897  0.30673756  1
  N  N45  1  0.77332668  0.09001868  0.11429123  1
  N  N46  1  0.55639788  0.20546297  0.86454203  1
  N  N47  1  0.44479038  0.09491799  0.61766674  1
  N  N48  1  0.22226928  0.53863258  0.36763316  1
  N  N49  1  0.11063888  0.42778445  0.12052015  1
  N  N50  1  0.89326609  0.54346277  0.86581274  1
  N  N51  1  0.79416116  0.39357131  0.57629336  1
  N  N52  1  0.55002254  0.54241299  0.37666531  1
  N  N53  1  0.44464745  0.42760965  0.11770929  1
  N  N54  1  0.22237099  0.53920132  0.87034699  1
  N  N55  1  0.11262953  0.42855528  0.61965294  1
  N  N56  1  0.89000804  0.54066938  0.37092311  1
  N  N57  1  0.77269729  0.43164440  0.07047655  1
  N  N58  1  0.53821465  0.56699498  0.85839930  1
  N  N59  1  0.44212593  0.42706556  0.62036131  1
  N  N60  1  0.22618266  0.86629570  0.37519527  1
  N  N61  1  0.11084580  0.76119655  0.11766861  1
  N  N62  1  0.88881567  0.87315975  0.86461777  1
  N  N63  1  0.77784154  0.76228867  0.61786452  1
  N  N64  1  0.55485809  0.87133097  0.37289972  1
  N  N65  1  0.44464322  0.76085042  0.12443829  1
  N  N66  1  0.24993447  0.85536842  0.85932798  1
  N  N67  1  0.11061504  0.75893255  0.62003036  1
  N  N68  1  0.88911918  0.87233455  0.36879373  1
  N  N69  1  0.77557229  0.76309986  0.11805117  1
  N  N70  1  0.54312566  0.86002594  0.86195892  1
  N  N71  1  0.44400902  0.76191522  0.63991888  1
