# generated using pymatgen
data_Al17BN18
_symmetry_space_group_name_H-M   'P 1'
_cell_length_a   9.36205552
_cell_length_b   9.36205426
_cell_length_c   10.06916594
_cell_angle_alpha   90.16230791
_cell_angle_beta   90.16305193
_cell_angle_gamma   60.12676652
_symmetry_Int_Tables_number   1
_chemical_formula_structural   Al17BN18
_chemical_formula_sum   'Al34 B2 N36'
_cell_volume   765.27496039
_cell_formula_units_Z   2
loop_
 _symmetry_equiv_pos_site_id
 _symmetry_equiv_pos_as_xyz
  1  'x, y, z'
loop_
 _atom_site_type_symbol
 _atom_site_label
 _atom_site_symmetry_multiplicity
 _atom_site_fract_x
 _atom_site_fract_y
 _atom_site_fract_z
 _atom_site_occupancy
  Al  Al0  1  0.10416880  0.10083107  0.39329964  1
  Al  Al1  1  0.22221311  0.20171285  0.13660951  1
  Al  Al2  1  0.78096126  0.09764801  0.86005825  1
  Al  Al3  1  0.43872217  0.09661910  0.39128707  1
  Al  Al4  1  0.55480403  0.21032088  0.06432153  1
  Al  Al5  1  0.11163630  0.09494980  0.87670498  1
  Al  Al6  1  0.21317370  0.21073559  0.63889990  1
  Al  Al7  1  0.78276840  0.09945537  0.38617471  1
  Al  Al8  1  0.88905804  0.20574134  0.13342136  1
  Al  Al9  1  0.43674645  0.09265214  0.87456147  1
  Al  Al10  1  0.55709707  0.21322887  0.58162041  1
  Al  Al11  1  0.10878819  0.42547288  0.38200887  1
  Al  Al12  1  0.22444006  0.54112231  0.07433967  1
  Al  Al13  1  0.77826803  0.42831946  0.87670501  1
  Al  Al14  1  0.89405205  0.52985881  0.63889973  1
  Al  Al15  1  0.44818162  0.42817967  0.31945531  1
  Al  Al16  1  0.54904383  0.54573915  0.06351041  1
  Al  Al17  1  0.10831742  0.42500037  0.89144010  1
  Al  Al18  1  0.22494297  0.54162546  0.56501321  1
  Al  Al19  1  0.78414560  0.42085510  0.39329934  1
  Al  Al20  1  0.88503160  0.53889637  0.13660959  1
  Al  Al21  1  0.43907582  0.43704755  0.81761250  1
  Al  Al22  1  0.55503276  0.53857423  0.58062077  1
  Al  Al23  1  0.11149378  0.76486623  0.31945504  1
  Al  Al24  1  0.22905670  0.86572445  0.06351035  1
  Al  Al25  1  0.77596801  0.75343129  0.87456111  1
  Al  Al26  1  0.89654596  0.87377972  0.58161940  1
  Al  Al27  1  0.44406328  0.76075062  0.32303358  1
  Al  Al28  1  0.54986374  0.86654453  0.06684012  1
  Al  Al29  1  0.12036287  0.75575981  0.81761246  1
  Al  Al30  1  0.22189050  0.87171512  0.58062068  1
  Al  Al31  1  0.77993139  0.75540936  0.39128620  1
  Al  Al32  1  0.89363754  0.87148907  0.06432066  1
  Al  Al33  1  0.55158591  0.86827154  0.58662596  1
  B  B34  1  0.89066336  0.20734719  0.64255546  1
  B  B35  1  0.44336294  0.76004619  0.81440801  1
  N  N36  1  0.22133536  0.20250440  0.32702122  1
  N  N37  1  0.10766389  0.09732745  0.06963834  1
  N  N38  1  0.89156109  0.20824543  0.80456663  1
  N  N39  1  0.79275948  0.10944244  0.59492719  1
  N  N40  1  0.55436107  0.21110715  0.38231749  1
  N  N41  1  0.43926883  0.09555090  0.07418053  1
  N  N42  1  0.21722716  0.20996386  0.82499556  1
  N  N43  1  0.08378891  0.11078282  0.58746063  1
  N  N44  1  0.89022022  0.20690761  0.32228368  1
  N  N45  1  0.78118581  0.09787019  0.07474887  1
  N  N46  1  0.55132343  0.21235261  0.86550515  1
  N  N47  1  0.43741035  0.09869312  0.59023368  1
  N  N48  1  0.22523764  0.54192142  0.37293132  1
  N  N49  1  0.10802713  0.42470969  0.08341740  1
  N  N50  1  0.89327965  0.53391259  0.82499530  1
  N  N51  1  0.79410015  0.40047291  0.58746032  1
  N  N52  1  0.55255495  0.54248575  0.38729193  1
  N  N53  1  0.44751847  0.42832246  0.12910322  1
  N  N54  1  0.22406874  0.54075144  0.88280672  1
  N  N55  1  0.10914555  0.42583036  0.57355362  1
  N  N56  1  0.88581833  0.53802254  0.32702108  1
  N  N57  1  0.78064655  0.42434735  0.06963789  1
  N  N58  1  0.53928432  0.56603709  0.86910180  1
  N  N59  1  0.43992809  0.43285332  0.63147934  1
  N  N60  1  0.22579945  0.86924053  0.38729143  1
  N  N61  1  0.11163994  0.76419995  0.12910288  1
  N  N62  1  0.89566816  0.86800937  0.86550458  1
  N  N63  1  0.78200772  0.75409599  0.59023288  1
  N  N64  1  0.55172496  0.86841309  0.38480226  1
  N  N65  1  0.44317986  0.75986124  0.13480238  1
  N  N66  1  0.24935365  0.85596718  0.86910161  1
  N  N67  1  0.11617064  0.75660957  0.63147917  1
  N  N68  1  0.89442126  0.87104735  0.38231626  1
  N  N69  1  0.77886931  0.75595236  0.07417966  1
  N  N70  1  0.53967485  0.85635923  0.86573866  1
  N  N71  1  0.44278018  0.75946360  0.65208905  1
