# generated using pymatgen
data_Al17BN18
_symmetry_space_group_name_H-M   'P 1'
_cell_length_a   9.30658225
_cell_length_b   9.30309200
_cell_length_c   9.98318847
_cell_angle_alpha   89.82885326
_cell_angle_beta   90.03729679
_cell_angle_gamma   60.01986349
_symmetry_Int_Tables_number   1
_chemical_formula_structural   Al17BN18
_chemical_formula_sum   'Al34 B2 N36'
_cell_volume   748.68832829
_cell_formula_units_Z   2
loop_
 _symmetry_equiv_pos_site_id
 _symmetry_equiv_pos_as_xyz
  1  'x, y, z'
loop_
 _atom_site_type_symbol
 _atom_site_label
 _atom_site_symmetry_multiplicity
 _atom_site_fract_x
 _atom_site_fract_y
 _atom_site_fract_z
 _atom_site_occupancy
  Al  Al0  1  0.11143085  0.09285586  0.30865592  1
  Al  Al1  1  0.22287249  0.20485540  0.05833951  1
  Al  Al2  1  0.78015128  0.09675127  0.81162807  1
  Al  Al3  1  0.44495279  0.09318524  0.31008497  1
  Al  Al4  1  0.55528313  0.20505966  0.05818671  1
  Al  Al5  1  0.11171526  0.09349772  0.81204865  1
  Al  Al6  1  0.21590557  0.20788482  0.55884183  1
  Al  Al7  1  0.77835100  0.09436909  0.30819432  1
  Al  Al8  1  0.88954561  0.20361269  0.07061737  1
  Al  Al9  1  0.44314082  0.09053662  0.80822733  1
  Al  Al10  1  0.55957074  0.20830365  0.55946060  1
  Al  Al11  1  0.11071599  0.42702703  0.30983757  1
  Al  Al12  1  0.22192025  0.53912768  0.06046697  1
  Al  Al13  1  0.77643819  0.42823041  0.82397695  1
  Al  Al14  1  0.89094810  0.53280978  0.56137117  1
  Al  Al15  1  0.44618771  0.42804109  0.31036106  1
  Al  Al16  1  0.55045576  0.54564472  0.05623475  1
  Al  Al17  1  0.11211260  0.42822635  0.80864007  1
  Al  Al18  1  0.22223430  0.53955303  0.55755741  1
  Al  Al19  1  0.77756243  0.42544114  0.31485761  1
  Al  Al20  1  0.88877484  0.54010304  0.05987372  1
  Al  Al21  1  0.44183687  0.43333909  0.80913166  1
  Al  Al22  1  0.55915397  0.53507511  0.56865330  1
  Al  Al23  1  0.11133990  0.76320494  0.30935018  1
  Al  Al24  1  0.22796356  0.86954380  0.05411072  1
  Al  Al25  1  0.77331215  0.76037931  0.80810548  1
  Al  Al26  1  0.89108716  0.87694487  0.55910923  1
  Al  Al27  1  0.44428132  0.76063006  0.31255083  1
  Al  Al28  1  0.55268701  0.86928615  0.05621131  1
  Al  Al29  1  0.11624556  0.75930724  0.80874656  1
  Al  Al30  1  0.21760553  0.87620768  0.56554063  1
  Al  Al31  1  0.77647979  0.76123608  0.31086595  1
  Al  Al32  1  0.88801892  0.87199301  0.05777645  1
  Al  Al33  1  0.55402291  0.87148231  0.56416724  1
  B  B34  1  0.88836850  0.20758242  0.59266445  1
  B  B35  1  0.44368310  0.76224152  0.80512936  1
  N  N36  1  0.22258823  0.20434236  0.36922260  1
  N  N37  1  0.11717557  0.08932499  0.11596338  1
  N  N38  1  0.89123727  0.20275206  0.87808227  1
  N  N39  1  0.79237636  0.10969926  0.61696917  1
  N  N40  1  0.55608842  0.20485520  0.36948199  1
  N  N41  1  0.44540284  0.09234610  0.11720106  1
  N  N42  1  0.22209783  0.20593943  0.86719678  1
  N  N43  1  0.08187500  0.10987262  0.61814118  1
  N  N44  1  0.89036668  0.20333393  0.35173568  1
  N  N45  1  0.77522927  0.09141597  0.11717119  1
  N  N46  1  0.55553668  0.20563838  0.86619048  1
  N  N47  1  0.44380606  0.09572200  0.61819191  1
  N  N48  1  0.22237865  0.53919699  0.36717112  1
  N  N49  1  0.11120490  0.42704713  0.11916685  1
  N  N50  1  0.89069452  0.53968330  0.86841327  1
  N  N51  1  0.79271304  0.39902699  0.61908031  1
  N  N52  1  0.55508951  0.54019828  0.37658590  1
  N  N53  1  0.44541480  0.42817165  0.11785690  1
  N  N54  1  0.22203276  0.53887771  0.87019956  1
  N  N55  1  0.11227802  0.42816187  0.61878496  1
  N  N56  1  0.88864731  0.53849951  0.37068377  1
  N  N57  1  0.77316801  0.43216144  0.11189060  1
  N  N58  1  0.54153468  0.56478307  0.86098852  1
  N  N59  1  0.44288856  0.42820794  0.62010738  1
  N  N60  1  0.22399683  0.87169935  0.37481208  1
  N  N61  1  0.11158857  0.76298914  0.11657418  1
  N  N62  1  0.88868289  0.87198643  0.86584292  1
  N  N63  1  0.77852943  0.76126485  0.61830397  1
  N  N64  1  0.55473110  0.87124166  0.37297677  1
  N  N65  1  0.44347614  0.76121863  0.12346373  1
  N  N66  1  0.24685070  0.86074002  0.85933041  1
  N  N67  1  0.11125892  0.76023695  0.61950220  1
  N  N68  1  0.88876952  0.87190043  0.36927266  1
  N  N69  1  0.77567094  0.76215689  0.11807809  1
  N  N70  1  0.54291112  0.85966556  0.86185222  1
  N  N71  1  0.44367935  0.76193656  0.63987113  1
