# generated using pymatgen
data_Al17BN18
_symmetry_space_group_name_H-M   'P 1'
_cell_length_a   9.30435537
_cell_length_b   9.30435568
_cell_length_c   10.14015967
_cell_angle_alpha   90.04879336
_cell_angle_beta   90.04879364
_cell_angle_gamma   60.17781539
_symmetry_Int_Tables_number   1
_chemical_formula_structural   Al17BN18
_chemical_formula_sum   'Al34 B2 N36'
_cell_volume   761.59342420
_cell_formula_units_Z   2
loop_
 _symmetry_equiv_pos_site_id
 _symmetry_equiv_pos_as_xyz
  1  'x, y, z'
loop_
 _atom_site_type_symbol
 _atom_site_label
 _atom_site_symmetry_multiplicity
 _atom_site_fract_x
 _atom_site_fract_y
 _atom_site_fract_z
 _atom_site_occupancy
  Al  Al0  1  0.10138264  0.10099673  0.39106451  1
  Al  Al1  1  0.21526843  0.20426227  0.13221193  1
  Al  Al2  1  0.77827084  0.09496977  0.80755129  1
  Al  Al3  1  0.44881494  0.09035451  0.31491967  1
  Al  Al4  1  0.55546353  0.20476255  0.06205358  1
  Al  Al5  1  0.11410081  0.09551145  0.87271361  1
  Al  Al6  1  0.21259492  0.21066230  0.63335904  1
  Al  Al7  1  0.77426522  0.09096418  0.31290843  1
  Al  Al8  1  0.89025661  0.20695462  0.12961576  1
  Al  Al9  1  0.45032670  0.08830926  0.81273808  1
  Al  Al10  1  0.56041224  0.20700059  0.56300163  1
  Al  Al11  1  0.10793474  0.42463213  0.38027811  1
  Al  Al12  1  0.22492997  0.54162620  0.06807146  1
  Al  Al13  1  0.77881532  0.43079886  0.87271309  1
  Al  Al14  1  0.89396348  0.52929590  0.63335900  1
  Al  Al15  1  0.44696436  0.42924362  0.31450722  1
  Al  Al16  1  0.54739669  0.54667108  0.05798397  1
  Al  Al17  1  0.10897175  0.42566920  0.88560062  1
  Al  Al18  1  0.22534616  0.54204436  0.56170874  1
  Al  Al19  1  0.78429830  0.41808084  0.39106474  1
  Al  Al20  1  0.88756572  0.53196590  0.13221185  1
  Al  Al21  1  0.44178108  0.43380618  0.81338591  1
  Al  Al22  1  0.55429202  0.53878504  0.57723759  1
  Al  Al23  1  0.11254509  0.76366251  0.31450727  1
  Al  Al24  1  0.22997383  0.86409221  0.05798402  1
  Al  Al25  1  0.77161078  0.76702658  0.81273849  1
  Al  Al26  1  0.89030090  0.87711268  0.56300134  1
  Al  Al27  1  0.44377301  0.76047159  0.31813546  1
  Al  Al28  1  0.55298816  0.86968606  0.05969836  1
  Al  Al29  1  0.11710763  0.75847867  0.81338563  1
  Al  Al30  1  0.22208695  0.87098943  0.57723728  1
  Al  Al31  1  0.77365704  0.76551171  0.31491973  1
  Al  Al32  1  0.88806478  0.87216095  0.06205392  1
  Al  Al33  1  0.55496115  0.87165974  0.56824179  1
  B  B34  1  0.89201284  0.20871155  0.64126368  1
  B  B35  1  0.44374332  0.76044113  0.81054598  1
  N  N36  1  0.21590794  0.20379944  0.32339453  1
  N  N37  1  0.10643368  0.09643414  0.06276839  1
  N  N38  1  0.89487763  0.21157570  0.80305246  1
  N  N39  1  0.78785640  0.10455627  0.61831392  1
  N  N40  1  0.55451943  0.20667996  0.37474512  1
  N  N41  1  0.44836980  0.09024069  0.12168827  1
  N  N42  1  0.21987056  0.21024114  0.82161442  1
  N  N43  1  0.08281584  0.11030270  0.58373060  1
  N  N44  1  0.89043072  0.20712917  0.31814085  1
  N  N45  1  0.77387583  0.09057358  0.12228045  1
  N  N46  1  0.55790411  0.20699108  0.87318062  1
  N  N47  1  0.44980936  0.09332985  0.62206761  1
  N  N48  1  0.22503093  0.54172904  0.37044733  1
  N  N49  1  0.10799227  0.42468893  0.07549439  1
  N  N50  1  0.89354343  0.53657028  0.82161441  1
  N  N51  1  0.79360479  0.39951498  0.58373097  1
  N  N52  1  0.55159823  0.54264962  0.38460308  1
  N  N53  1  0.44748223  0.42761207  0.12483923  1
  N  N54  1  0.22524249  0.54194014  0.87764175  1
  N  N55  1  0.10914660  0.42584533  0.56942526  1
  N  N56  1  0.88710214  0.53260500  0.32339443  1
  N  N57  1  0.77973816  0.42313108  0.06276788  1
  N  N58  1  0.53929222  0.56731651  0.86395603  1
  N  N59  1  0.44278807  0.42692994  0.62706341  1
  N  N60  1  0.22595104  0.86829663  0.38460285  1
  N  N61  1  0.11091440  0.76417865  0.12483928  1
  N  N62  1  0.89029283  0.87460312  0.87318091  1
  N  N63  1  0.77663067  0.76650980  0.62206801  1
  N  N64  1  0.55449137  0.87118905  0.37922619  1
  N  N65  1  0.44406766  0.76076502  0.12996390  1
  N  N66  1  0.25061881  0.85598886  0.86395606  1
  N  N67  1  0.11023070  0.75948666  0.62706310  1
  N  N68  1  0.88998113  0.87121809  0.37474487  1
  N  N69  1  0.77354297  0.76506720  0.12168826  1
  N  N70  1  0.54386308  0.86056164  0.86873507  1
  N  N71  1  0.44547619  0.76217441  0.64723467  1
