# generated using pymatgen
data_Al17BN18
_symmetry_space_group_name_H-M   'P 1'
_cell_length_a   9.30704860
_cell_length_b   9.31127175
_cell_length_c   9.98680067
_cell_angle_alpha   90.04201353
_cell_angle_beta   89.81200457
_cell_angle_gamma   60.01734919
_symmetry_Int_Tables_number   1
_chemical_formula_structural   Al17BN18
_chemical_formula_sum   'Al34 B2 N36'
_cell_volume   749.63512342
_cell_formula_units_Z   2
loop_
 _symmetry_equiv_pos_site_id
 _symmetry_equiv_pos_as_xyz
  1  'x, y, z'
loop_
 _atom_site_type_symbol
 _atom_site_label
 _atom_site_symmetry_multiplicity
 _atom_site_fract_x
 _atom_site_fract_y
 _atom_site_fract_z
 _atom_site_occupancy
  Al  Al0  1  0.10354960  0.10101599  0.40115298  1
  Al  Al1  1  0.22199171  0.20390434  0.14737279  1
  Al  Al2  1  0.77846447  0.09596407  0.89362132  1
  Al  Al3  1  0.44493735  0.09491232  0.39985961  1
  Al  Al4  1  0.55668209  0.20506089  0.14765709  1
  Al  Al5  1  0.11501962  0.09074201  0.88830242  1
  Al  Al6  1  0.21665900  0.20826305  0.64875937  1
  Al  Al7  1  0.78068034  0.09727358  0.40147431  1
  Al  Al8  1  0.88909946  0.20585533  0.14516571  1
  Al  Al9  1  0.44160571  0.09030895  0.89817049  1
  Al  Al10  1  0.55951990  0.20675631  0.64961348  1
  Al  Al11  1  0.11081800  0.42812106  0.39728729  1
  Al  Al12  1  0.22302362  0.53907940  0.14791507  1
  Al  Al13  1  0.77368919  0.43250749  0.89214481  1
  Al  Al14  1  0.89075804  0.53371843  0.64906163  1
  Al  Al15  1  0.44516363  0.42686234  0.39971744  1
  Al  Al16  1  0.55763492  0.53748345  0.15022841  1
  Al  Al17  1  0.11038300  0.42767197  0.90026293  1
  Al  Al18  1  0.22182201  0.53754287  0.64931401  1
  Al  Al19  1  0.78051615  0.42190245  0.40397534  1
  Al  Al20  1  0.88660749  0.53871970  0.14841055  1
  Al  Al21  1  0.44204221  0.43413245  0.89882155  1
  Al  Al22  1  0.55657875  0.53815238  0.64519809  1
  Al  Al23  1  0.10919657  0.76065072  0.39769213  1
  Al  Al24  1  0.22462958  0.87237437  0.13820168  1
  Al  Al25  1  0.77292101  0.75878538  0.89858485  1
  Al  Al26  1  0.88950250  0.87672468  0.64992759  1
  Al  Al27  1  0.44713164  0.76006215  0.38398341  1
  Al  Al28  1  0.55614090  0.87214170  0.15070171  1
  Al  Al29  1  0.11722349  0.75872510  0.89571743  1
  Al  Al30  1  0.22148905  0.87387656  0.62395116  1
  Al  Al31  1  0.77817065  0.76198940  0.40036368  1
  Al  Al32  1  0.88852007  0.87356928  0.14687864  1
  Al  Al33  1  0.55334731  0.86971471  0.64556716  1
  B  B34  1  0.88772892  0.20653142  0.65273319  1
  B  B35  1  0.44165308  0.76189770  0.86085517  1
  N  N36  1  0.22190880  0.20480324  0.33971444  1
  N  N37  1  0.10941098  0.09556914  0.08092882  1
  N  N38  1  0.88791526  0.20634871  0.81791564  1
  N  N39  1  0.79041460  0.10697513  0.59586165  1
  N  N40  1  0.55758331  0.20459317  0.34051779  1
  N  N41  1  0.44512742  0.09380414  0.08813064  1
  N  N42  1  0.22179919  0.20716789  0.83761615  1
  N  N43  1  0.08455366  0.10968612  0.59674456  1
  N  N44  1  0.88846093  0.20673740  0.33410345  1
  N  N45  1  0.77869191  0.09526092  0.08479055  1
  N  N46  1  0.55429881  0.20610367  0.83960646  1
  N  N47  1  0.44422782  0.09454214  0.59176753  1
  N  N48  1  0.22306342  0.53853132  0.33844766  1
  N  N49  1  0.11069476  0.42763503  0.09057707  1
  N  N50  1  0.88979113  0.53866190  0.83828213  1
  N  N51  1  0.78939378  0.40303885  0.59864531  1
  N  N52  1  0.56141140  0.53128703  0.34258911  1
  N  N53  1  0.44564529  0.42740954  0.08840534  1
  N  N54  1  0.22187420  0.53736407  0.83899587  1
  N  N55  1  0.11115507  0.42784471  0.58751512  1
  N  N56  1  0.88693358  0.53842584  0.34124467  1
  N  N57  1  0.77816539  0.42603106  0.08283439  1
  N  N58  1  0.53990056  0.56845592  0.83938683  1
  N  N59  1  0.44398631  0.42772904  0.59077915  1
  N  N60  1  0.21700726  0.87737063  0.35195897  1
  N  N61  1  0.11116515  0.76103799  0.08690878  1
  N  N62  1  0.88855738  0.87149208  0.83957983  1
  N  N63  1  0.77826405  0.76121314  0.59217221  1
  N  N64  1  0.55938277  0.87551334  0.34141250  1
  N  N65  1  0.44729399  0.75925968  0.11477157  1
  N  N66  1  0.25177101  0.85674516  0.84215878  1
  N  N67  1  0.10967045  0.75839365  0.58945503  1
  N  N68  1  0.88766144  0.87432567  0.33947954  1
  N  N69  1  0.77799850  0.76123647  0.08836307  1
  N  N70  1  0.54004726  0.85733460  0.84053567  1
  N  N71  1  0.44880538  0.75782156  0.57876497  1
