# generated using pymatgen
data_Al17BN18
_symmetry_space_group_name_H-M   'P 1'
_cell_length_a   9.31768575
_cell_length_b   9.32736377
_cell_length_c   10.13431934
_cell_angle_alpha   90.10330694
_cell_angle_beta   90.02600095
_cell_angle_gamma   60.16632343
_symmetry_Int_Tables_number   1
_chemical_formula_structural   Al17BN18
_chemical_formula_sum   'Al34 B2 N36'
_cell_volume   764.04134764
_cell_formula_units_Z   2
loop_
 _symmetry_equiv_pos_site_id
 _symmetry_equiv_pos_as_xyz
  1  'x, y, z'
loop_
 _atom_site_type_symbol
 _atom_site_label
 _atom_site_symmetry_multiplicity
 _atom_site_fract_x
 _atom_site_fract_y
 _atom_site_fract_z
 _atom_site_occupancy
  Al  Al0  1  0.10106292  0.10056376  0.39568296  1
  Al  Al1  1  0.22346819  0.20005730  0.13787183  1
  Al  Al2  1  0.77858835  0.09631076  0.81213040  1
  Al  Al3  1  0.43752035  0.09599187  0.39212303  1
  Al  Al4  1  0.55873570  0.20789094  0.06685090  1
  Al  Al5  1  0.11346182  0.09582240  0.87807349  1
  Al  Al6  1  0.21578215  0.21012421  0.64014640  1
  Al  Al7  1  0.77373216  0.08965022  0.31706786  1
  Al  Al8  1  0.89150665  0.20680227  0.13500671  1
  Al  Al9  1  0.43918602  0.09410853  0.87985891  1
  Al  Al10  1  0.56333005  0.21161753  0.57089563  1
  Al  Al11  1  0.10863865  0.42380468  0.38465532  1
  Al  Al12  1  0.22426219  0.54144977  0.07410952  1
  Al  Al13  1  0.77850304  0.43097379  0.87875069  1
  Al  Al14  1  0.89456912  0.52880269  0.63900216  1
  Al  Al15  1  0.44708263  0.42877371  0.31940821  1
  Al  Al16  1  0.54738428  0.54639300  0.06358076  1
  Al  Al17  1  0.10815658  0.42598427  0.89212999  1
  Al  Al18  1  0.22449091  0.54226838  0.56679597  1
  Al  Al19  1  0.78404991  0.41652469  0.39620420  1
  Al  Al20  1  0.88752803  0.53308620  0.13791495  1
  Al  Al21  1  0.44125455  0.43531705  0.81848647  1
  Al  Al22  1  0.55392179  0.53932272  0.58171278  1
  Al  Al23  1  0.11262465  0.76340657  0.31966889  1
  Al  Al24  1  0.22933884  0.86488755  0.06354731  1
  Al  Al25  1  0.77244108  0.76628043  0.82170376  1
  Al  Al26  1  0.89148079  0.87824372  0.57073719  1
  Al  Al27  1  0.44394841  0.75975650  0.32359221  1
  Al  Al28  1  0.55637163  0.86227584  0.06478357  1
  Al  Al29  1  0.11796430  0.75842393  0.81895173  1
  Al  Al30  1  0.22141051  0.87178565  0.58228818  1
  Al  Al31  1  0.77502713  0.76213244  0.33454458  1
  Al  Al32  1  0.88838745  0.87174186  0.06623978  1
  Al  Al33  1  0.55483575  0.86777766  0.58236861  1
  B  B34  1  0.89341892  0.20970237  0.64665552  1
  B  B35  1  0.44406598  0.76002353  0.81563960  1
  N  N36  1  0.22113848  0.20062527  0.32722819  1
  N  N37  1  0.10720951  0.09690077  0.06885246  1
  N  N38  1  0.89568328  0.21252242  0.80824922  1
  N  N39  1  0.78898184  0.10514211  0.62377076  1
  N  N40  1  0.55707942  0.20883146  0.37967747  1
  N  N41  1  0.44011834  0.09406007  0.07465462  1
  N  N42  1  0.22110608  0.21003845  0.82511551  1
  N  N43  1  0.08313331  0.11133957  0.58891137  1
  N  N44  1  0.89086416  0.20596434  0.32330961  1
  N  N45  1  0.77487143  0.08974433  0.12738129  1
  N  N46  1  0.56060684  0.21132327  0.87528420  1
  N  N47  1  0.43842390  0.09983125  0.58686029  1
  N  N48  1  0.22484605  0.54142632  0.37523081  1
  N  N49  1  0.10885818  0.42320235  0.08277468  1
  N  N50  1  0.89393036  0.53580821  0.82705049  1
  N  N51  1  0.79335767  0.39989923  0.58889102  1
  N  N52  1  0.55164773  0.54190044  0.38929647  1
  N  N53  1  0.44705368  0.42822770  0.13034394  1
  N  N54  1  0.22450707  0.54198863  0.88333602  1
  N  N55  1  0.10890909  0.42569927  0.57434121  1
  N  N56  1  0.88777559  0.53104633  0.32970061  1
  N  N57  1  0.77961979  0.42305963  0.06910138  1
  N  N58  1  0.53907043  0.56729811  0.86982866  1
  N  N59  1  0.44150236  0.42951503  0.63242801  1
  N  N60  1  0.22572720  0.86832241  0.38963807  1
  N  N61  1  0.11082785  0.76433169  0.13008134  1
  N  N62  1  0.89084985  0.87619003  0.87684899  1
  N  N63  1  0.77807762  0.76579174  0.62670953  1
  N  N64  1  0.55587593  0.86456266  0.38841817  1
  N  N65  1  0.44343266  0.76031340  0.13573568  1
  N  N66  1  0.25018565  0.85651503  0.86971602  1
  N  N67  1  0.11120723  0.75934156  0.63254666  1
  N  N68  1  0.89083199  0.87138673  0.38206790  1
  N  N69  1  0.77558319  0.76235087  0.12008910  1
  N  N70  1  0.54410414  0.85594261  0.86942041  1
  N  N71  1  0.44354828  0.76084139  0.65333956  1
