# generated using pymatgen
data_Al17BN18
_symmetry_space_group_name_H-M   'P 1'
_cell_length_a   9.29942422
_cell_length_b   9.30190051
_cell_length_c   9.98014793
_cell_angle_alpha   90.03226520
_cell_angle_beta   89.86729701
_cell_angle_gamma   60.01197280
_symmetry_Int_Tables_number   1
_chemical_formula_structural   Al17BN18
_chemical_formula_sum   'Al34 B2 N36'
_cell_volume   747.73157771
_cell_formula_units_Z   2
loop_
 _symmetry_equiv_pos_site_id
 _symmetry_equiv_pos_as_xyz
  1  'x, y, z'
loop_
 _atom_site_type_symbol
 _atom_site_label
 _atom_site_symmetry_multiplicity
 _atom_site_fract_x
 _atom_site_fract_y
 _atom_site_fract_z
 _atom_site_occupancy
  Al  Al0  1  0.10495466  0.09825523  0.40187184  1
  Al  Al1  1  0.22184088  0.20368651  0.14739915  1
  Al  Al2  1  0.77867364  0.09585054  0.89342351  1
  Al  Al3  1  0.44492649  0.09450177  0.39923449  1
  Al  Al4  1  0.55681266  0.20499840  0.14748683  1
  Al  Al5  1  0.11497492  0.09076219  0.89023583  1
  Al  Al6  1  0.21664815  0.20785234  0.64848903  1
  Al  Al7  1  0.78066909  0.09727893  0.40153156  1
  Al  Al8  1  0.88934218  0.20567141  0.14522630  1
  Al  Al9  1  0.44186617  0.09039746  0.89815450  1
  Al  Al10  1  0.55947457  0.20686486  0.64935127  1
  Al  Al11  1  0.11091125  0.42790206  0.39723302  1
  Al  Al12  1  0.22283092  0.53934769  0.14789655  1
  Al  Al13  1  0.77394660  0.43211336  0.89192960  1
  Al  Al14  1  0.89069753  0.53365437  0.64881107  1
  Al  Al15  1  0.44510659  0.42723769  0.39906271  1
  Al  Al16  1  0.55653223  0.53943435  0.14785954  1
  Al  Al17  1  0.11057654  0.42778410  0.89998429  1
  Al  Al18  1  0.22172160  0.53827524  0.64887844  1
  Al  Al19  1  0.78040411  0.42205137  0.40321623  1
  Al  Al20  1  0.88684212  0.53855130  0.14818806  1
  Al  Al21  1  0.44225365  0.43401353  0.89872290  1
  Al  Al22  1  0.55636763  0.53854545  0.64578275  1
  Al  Al23  1  0.11038233  0.76155467  0.39801524  1
  Al  Al24  1  0.22410147  0.87254507  0.14607482  1
  Al  Al25  1  0.77324806  0.75897576  0.89836138  1
  Al  Al26  1  0.88999804  0.87648975  0.64933190  1
  Al  Al27  1  0.44558264  0.76077622  0.38891650  1
  Al  Al28  1  0.55498149  0.87127904  0.14829972  1
  Al  Al29  1  0.11729110  0.75929234  0.89737816  1
  Al  Al30  1  0.22207361  0.87320958  0.64064085  1
  Al  Al31  1  0.77781867  0.76187102  0.39950896  1
  Al  Al32  1  0.88868335  0.87344393  0.14687779  1
  Al  Al33  1  0.55310504  0.86980165  0.64627639  1
  B  B34  1  0.88806371  0.20576210  0.65244899  1
  B  B35  1  0.44319692  0.76128122  0.86954430  1
  N  N36  1  0.22170495  0.20421311  0.34002017  1
  N  N37  1  0.10991834  0.09436311  0.08178392  1
  N  N38  1  0.88846026  0.20599472  0.81784213  1
  N  N39  1  0.79034087  0.10705744  0.59585254  1
  N  N40  1  0.55764463  0.20453239  0.34039460  1
  N  N41  1  0.44498695  0.09399206  0.08819712  1
  N  N42  1  0.22174103  0.20690670  0.83769222  1
  N  N43  1  0.08591082  0.10708979  0.59685127  1
  N  N44  1  0.88902912  0.20619534  0.33439980  1
  N  N45  1  0.77870921  0.09522931  0.08465952  1
  N  N46  1  0.55431910  0.20617545  0.83939649  1
  N  N47  1  0.44448132  0.09437615  0.59127390  1
  N  N48  1  0.22279991  0.53893559  0.33865520  1
  N  N49  1  0.11079798  0.42755497  0.09047270  1
  N  N50  1  0.88980529  0.53868247  0.83805993  1
  N  N51  1  0.78924709  0.40309966  0.59805695  1
  N  N52  1  0.55999358  0.53397618  0.34088042  1
  N  N53  1  0.44548443  0.42744200  0.08843003  1
  N  N54  1  0.22175283  0.53814513  0.83892613  1
  N  N55  1  0.11118091  0.42795909  0.58753125  1
  N  N56  1  0.88704813  0.53829223  0.34091621  1
  N  N57  1  0.77816775  0.42605325  0.08280035  1
  N  N58  1  0.54045107  0.56767507  0.83959085  1
  N  N59  1  0.44412152  0.42799520  0.59023711  1
  N  N60  1  0.21833225  0.87633292  0.34184742  1
  N  N61  1  0.11153871  0.76161740  0.08761861  1
  N  N62  1  0.88916667  0.87128610  0.83930218  1
  N  N63  1  0.77788649  0.76132385  0.59152673  1
  N  N64  1  0.55782572  0.87414192  0.33962974  1
  N  N65  1  0.44536770  0.76023488  0.09905061  1
  N  N66  1  0.25057925  0.85754667  0.83776063  1
  N  N67  1  0.11105589  0.76010243  0.58925123  1
  N  N68  1  0.88792382  0.87426059  0.33978634  1
  N  N69  1  0.77791417  0.76119893  0.08833715  1
  N  N70  1  0.54064892  0.85778567  0.84080429  1
  N  N71  1  0.44569596  0.75966369  0.58012558  1
