# generated using pymatgen
data_Al17BN18
_symmetry_space_group_name_H-M   'P 1'
_cell_length_a   9.32075136
_cell_length_b   9.32397645
_cell_length_c   10.04953909
_cell_angle_alpha   89.98175009
_cell_angle_beta   89.98764248
_cell_angle_gamma   60.13788447
_symmetry_Int_Tables_number   1
_chemical_formula_structural   Al17BN18
_chemical_formula_sum   'Al34 B2 N36'
_cell_volume   757.40921292
_cell_formula_units_Z   2
loop_
 _symmetry_equiv_pos_site_id
 _symmetry_equiv_pos_as_xyz
  1  'x, y, z'
loop_
 _atom_site_type_symbol
 _atom_site_label
 _atom_site_symmetry_multiplicity
 _atom_site_fract_x
 _atom_site_fract_y
 _atom_site_fract_z
 _atom_site_occupancy
  Al  Al0  1  0.09889923  0.09756437  0.38404383  1
  Al  Al1  1  0.22382329  0.20673074  0.05579103  1
  Al  Al2  1  0.77795228  0.09460242  0.80249990  1
  Al  Al3  1  0.44186922  0.09316974  0.30922669  1
  Al  Al4  1  0.55606321  0.20485263  0.05713371  1
  Al  Al5  1  0.11365801  0.09259474  0.86106569  1
  Al  Al6  1  0.22116125  0.20981268  0.56475785  1
  Al  Al7  1  0.77322475  0.09055726  0.30737748  1
  Al  Al8  1  0.89124488  0.20762830  0.12380963  1
  Al  Al9  1  0.44617572  0.09027159  0.80665015  1
  Al  Al10  1  0.56090248  0.20710106  0.55755901  1
  Al  Al11  1  0.10946063  0.42613965  0.31045704  1
  Al  Al12  1  0.22189128  0.53819167  0.06063091  1
  Al  Al13  1  0.77644930  0.42998786  0.86162657  1
  Al  Al14  1  0.89235682  0.53730667  0.57139063  1
  Al  Al15  1  0.44578535  0.42873092  0.30929209  1
  Al  Al16  1  0.54683986  0.54583158  0.05262243  1
  Al  Al17  1  0.11466359  0.42956053  0.80773431  1
  Al  Al18  1  0.22283229  0.53947800  0.55582313  1
  Al  Al19  1  0.78196705  0.41661276  0.38475747  1
  Al  Al20  1  0.89001326  0.54018226  0.05844837  1
  Al  Al21  1  0.44215301  0.43322922  0.80811633  1
  Al  Al22  1  0.55366720  0.53835372  0.57267807  1
  Al  Al23  1  0.11202550  0.76184120  0.30925471  1
  Al  Al24  1  0.22898588  0.86345323  0.05261351  1
  Al  Al25  1  0.77284570  0.76393520  0.80769670  1
  Al  Al26  1  0.89032080  0.87763919  0.55747915  1
  Al  Al27  1  0.44377414  0.76029318  0.31223257  1
  Al  Al28  1  0.55190330  0.86951986  0.05513520  1
  Al  Al29  1  0.11655807  0.75830941  0.80809062  1
  Al  Al30  1  0.22159190  0.87055869  0.57298509  1
  Al  Al31  1  0.77611081  0.75909524  0.30996062  1
  Al  Al32  1  0.88820851  0.87297908  0.05723491  1
  Al  Al33  1  0.55454183  0.87193105  0.56293933  1
  B  B34  1  0.89291571  0.20913297  0.63703330  1
  B  B35  1  0.44375764  0.76036712  0.80338356  1
  N  N36  1  0.22276934  0.20589089  0.37179368  1
  N  N37  1  0.10469601  0.09310845  0.05782676  1
  N  N38  1  0.89492546  0.21128751  0.79729736  1
  N  N39  1  0.78741178  0.10397996  0.61208583  1
  N  N40  1  0.55385025  0.20601826  0.36790800  1
  N  N41  1  0.44372962  0.09239054  0.11734335  1
  N  N42  1  0.22812863  0.21001106  0.86377753  1
  N  N43  1  0.08258372  0.10909838  0.58178395  1
  N  N44  1  0.88989921  0.20759316  0.31281239  1
  N  N45  1  0.77384497  0.09069849  0.11634240  1
  N  N46  1  0.55820131  0.20660721  0.86679320  1
  N  N47  1  0.44692799  0.09476143  0.61807050  1
  N  N48  1  0.22221995  0.53838778  0.36638524  1
  N  N49  1  0.11026972  0.42590019  0.11992489  1
  N  N50  1  0.89353339  0.54413022  0.86102005  1
  N  N51  1  0.79229190  0.39897381  0.58237361  1
  N  N52  1  0.55078548  0.54205954  0.37783478  1
  N  N53  1  0.44530822  0.42790080  0.11783213  1
  N  N54  1  0.22336138  0.53959560  0.87169818  1
  N  N55  1  0.11442759  0.42930959  0.62011027  1
  N  N56  1  0.88943246  0.53988805  0.37148984  1
  N  N57  1  0.77681579  0.42122648  0.05788916  1
  N  N58  1  0.53834708  0.56762116  0.85632207  1
  N  N59  1  0.44209256  0.42696462  0.62020938  1
  N  N60  1  0.22537863  0.86684675  0.37770087  1
  N  N61  1  0.11132658  0.76150360  0.11781249  1
  N  N62  1  0.89009682  0.87506170  0.86707498  1
  N  N63  1  0.77710705  0.76502233  0.61884809  1
  N  N64  1  0.55407552  0.87159020  0.37217532  1
  N  N65  1  0.44346394  0.76015220  0.12326680  1
  N  N66  1  0.25096254  0.85471637  0.85597437  1
  N  N67  1  0.11023000  0.75859607  0.62016799  1
  N  N68  1  0.88914634  0.87115380  0.36787159  1
  N  N69  1  0.77510187  0.76118799  0.11724045  1
  N  N70  1  0.54333593  0.86099367  0.86221266  1
  N  N71  1  0.44565244  0.76209090  0.63998561  1
