# generated using pymatgen
data_Al17BN18
_symmetry_space_group_name_H-M   'P 1'
_cell_length_a   9.36185687
_cell_length_b   9.36185604
_cell_length_c   10.06782655
_cell_angle_alpha   90.14474400
_cell_angle_beta   90.14436332
_cell_angle_gamma   60.12896985
_symmetry_Int_Tables_number   1
_chemical_formula_structural   Al17BN18
_chemical_formula_sum   'Al34 B2 N36'
_cell_volume   765.15849498
_cell_formula_units_Z   2
loop_
 _symmetry_equiv_pos_site_id
 _symmetry_equiv_pos_as_xyz
  1  'x, y, z'
loop_
 _atom_site_type_symbol
 _atom_site_label
 _atom_site_symmetry_multiplicity
 _atom_site_fract_x
 _atom_site_fract_y
 _atom_site_fract_z
 _atom_site_occupancy
  Al  Al0  1  0.10427785  0.10097405  0.39267326  1
  Al  Al1  1  0.22155404  0.20188606  0.13703822  1
  Al  Al2  1  0.78166269  0.09835060  0.86953300  1
  Al  Al3  1  0.44024757  0.09404125  0.39214324  1
  Al  Al4  1  0.55337202  0.21139800  0.06495255  1
  Al  Al5  1  0.11138749  0.09498627  0.87558430  1
  Al  Al6  1  0.21287832  0.21088477  0.63857168  1
  Al  Al7  1  0.78335436  0.10003777  0.38934482  1
  Al  Al8  1  0.88918786  0.20587388  0.13326353  1
  Al  Al9  1  0.43667225  0.09282771  0.87527575  1
  Al  Al10  1  0.55727950  0.21322540  0.58142050  1
  Al  Al11  1  0.10886853  0.42555023  0.38195286  1
  Al  Al12  1  0.22449134  0.54117481  0.07428243  1
  Al  Al13  1  0.77830452  0.42807131  0.87558405  1
  Al  Al14  1  0.89420071  0.52956391  0.63857180  1
  Al  Al15  1  0.44827169  0.42767796  0.31969299  1
  Al  Al16  1  0.54912141  0.54576522  0.06280972  1
  Al  Al17  1  0.10835403  0.42503775  0.89117943  1
  Al  Al18  1  0.22497948  0.54166098  0.56480880  1
  Al  Al19  1  0.78429120  0.42096196  0.39267325  1
  Al  Al20  1  0.88520283  0.53823977  0.13703833  1
  Al  Al21  1  0.43924572  0.43672548  0.81730127  1
  Al  Al22  1  0.55499638  0.53818843  0.57917579  1
  Al  Al23  1  0.11099553  0.76495324  0.31969295  1
  Al  Al24  1  0.22908140  0.86580372  0.06280988  1
  Al  Al25  1  0.77614348  0.75335800  0.87527550  1
  Al  Al26  1  0.89654302  0.87396217  0.58142040  1
  Al  Al27  1  0.44429082  0.76097449  0.32277326  1
  Al  Al28  1  0.55123525  0.86791902  0.07504279  1
  Al  Al29  1  0.12004120  0.75592920  0.81730136  1
  Al  Al30  1  0.22150500  0.87167870  0.57917551  1
  Al  Al31  1  0.77735937  0.75693003  0.39214387  1
  Al  Al32  1  0.89471258  0.87005971  0.06495231  1
  Al  Al33  1  0.55299361  0.86967952  0.60580226  1
  B  B34  1  0.88989390  0.20657747  0.64183296  1
  B  B35  1  0.44211664  0.75880038  0.81334536  1
  N  N36  1  0.22173117  0.20251557  0.32730180  1
  N  N37  1  0.10746627  0.09739785  0.06893880  1
  N  N38  1  0.89050755  0.20719163  0.80420057  1
  N  N39  1  0.79355883  0.11024229  0.59064062  1
  N  N40  1  0.55431493  0.21074324  0.38223530  1
  N  N41  1  0.43863227  0.09570954  0.07362890  1
  N  N42  1  0.21722185  0.21001623  0.82476824  1
  N  N43  1  0.08391448  0.11066081  0.58716076  1
  N  N44  1  0.89009786  0.20678142  0.32146350  1
  N  N45  1  0.78150334  0.09819132  0.07154934  1
  N  N46  1  0.55123880  0.21255026  0.86615633  1
  N  N47  1  0.43773553  0.09818280  0.59048519  1
  N  N48  1  0.22528543  0.54196763  0.37284648  1
  N  N49  1  0.10802967  0.42471267  0.08329463  1
  N  N50  1  0.89333319  0.53390687  0.82476830  1
  N  N51  1  0.79397775  0.40059862  0.58716087  1
  N  N52  1  0.55268319  0.54225860  0.38646753  1
  N  N53  1  0.44743873  0.42859331  0.12921825  1
  N  N54  1  0.22416373  0.54084801  0.88271467  1
  N  N55  1  0.10923643  0.42591977  0.57353676  1
  N  N56  1  0.88583410  0.53841384  0.32730192  1
  N  N57  1  0.78071502  0.42415139  0.06893879  1
  N  N58  1  0.53918250  0.56626763  0.86874661  1
  N  N59  1  0.44000809  0.43260081  0.63125203  1
  N  N60  1  0.22557485  0.86936597  0.38646759  1
  N  N61  1  0.11190799  0.76412300  0.12921825  1
  N  N62  1  0.89586494  0.86792586  0.86615620  1
  N  N63  1  0.78149775  0.75442075  0.59048577  1
  N  N64  1  0.55279781  0.86947964  0.37566300  1
  N  N65  1  0.44277028  0.75945472  0.13342700  1
  N  N66  1  0.24958425  0.85586486  0.86874680  1
  N  N67  1  0.11591764  0.75669051  0.63125212  1
  N  N68  1  0.89406041  0.87099806  0.38223568  1
  N  N69  1  0.77902566  0.75531773  0.07362898  1
  N  N70  1  0.54121769  0.85790193  0.85691234  1
  N  N71  1  0.44097227  0.75765641  0.65139637  1
