# generated using pymatgen
data_Al17BN18
_symmetry_space_group_name_H-M   'P 1'
_cell_length_a   9.32979400
_cell_length_b   9.32419145
_cell_length_c   10.04479286
_cell_angle_alpha   90.01696048
_cell_angle_beta   90.00590074
_cell_angle_gamma   60.16195305
_symmetry_Int_Tables_number   1
_chemical_formula_structural   Al17BN18
_chemical_formula_sum   'Al34 B2 N36'
_cell_volume   757.98614690
_cell_formula_units_Z   2
loop_
 _symmetry_equiv_pos_site_id
 _symmetry_equiv_pos_as_xyz
  1  'x, y, z'
loop_
 _atom_site_type_symbol
 _atom_site_label
 _atom_site_symmetry_multiplicity
 _atom_site_fract_x
 _atom_site_fract_y
 _atom_site_fract_z
 _atom_site_occupancy
  Al  Al0  1  0.10381898  0.10355874  0.40532185  1
  Al  Al1  1  0.22122133  0.20366142  0.14837878  1
  Al  Al2  1  0.77769967  0.09584054  0.89526179  1
  Al  Al3  1  0.44512646  0.09395039  0.40063091  1
  Al  Al4  1  0.55673063  0.20821130  0.14866447  1
  Al  Al5  1  0.11157910  0.09664773  0.88580831  1
  Al  Al6  1  0.21671144  0.20745180  0.64975170  1
  Al  Al7  1  0.77985198  0.09874761  0.40301569  1
  Al  Al8  1  0.88991111  0.20599495  0.14539123  1
  Al  Al9  1  0.44283275  0.08910762  0.90025362  1
  Al  Al10  1  0.55969036  0.20385190  0.65139495  1
  Al  Al11  1  0.11160993  0.42767979  0.39747828  1
  Al  Al12  1  0.22442709  0.53927028  0.14687820  1
  Al  Al13  1  0.77952473  0.42831387  0.88483804  1
  Al  Al14  1  0.89171024  0.53338042  0.64987390  1
  Al  Al15  1  0.44382842  0.42566674  0.40241566  1
  Al  Al16  1  0.55240187  0.55134808  0.07385993  1
  Al  Al17  1  0.11041242  0.42711590  0.90238369  1
  Al  Al18  1  0.22165454  0.53317868  0.64958408  1
  Al  Al19  1  0.78650691  0.42096121  0.40516188  1
  Al  Al20  1  0.88817484  0.53793407  0.14854330  1
  Al  Al21  1  0.44050997  0.42852986  0.89361574  1
  Al  Al22  1  0.55746429  0.53649287  0.59700130  1
  Al  Al23  1  0.11119594  0.76178619  0.38204330  1
  Al  Al24  1  0.23195510  0.86644275  0.07263884  1
  Al  Al25  1  0.77237397  0.75952749  0.90068469  1
  Al  Al26  1  0.88391691  0.87845530  0.64942272  1
  Al  Al27  1  0.44304696  0.75840095  0.33358768  1
  Al  Al28  1  0.55900661  0.87679410  0.15019822  1
  Al  Al29  1  0.11437920  0.75985798  0.86454664  1
  Al  Al30  1  0.21985522  0.87290651  0.59489685  1
  Al  Al31  1  0.77665976  0.76156329  0.40092926  1
  Al  Al32  1  0.88941616  0.87465717  0.14721019  1
  Al  Al33  1  0.55521452  0.87209630  0.65529052  1
  B  B34  1  0.88970787  0.20614180  0.65434855  1
  B  B35  1  0.44161822  0.75708878  0.82070066  1
  N  N36  1  0.22210224  0.20427061  0.34002615  1
  N  N37  1  0.10799047  0.09881158  0.07981210  1
  N  N38  1  0.88815756  0.20406147  0.81775838  1
  N  N39  1  0.78854596  0.10724442  0.59554053  1
  N  N40  1  0.55752832  0.20622924  0.34054753  1
  N  N41  1  0.44392779  0.09621139  0.08997324  1
  N  N42  1  0.22300840  0.20773210  0.83763403  1
  N  N43  1  0.08249578  0.11149077  0.60099620  1
  N  N44  1  0.88985271  0.20633671  0.33453993  1
  N  N45  1  0.77780638  0.09651155  0.08573390  1
  N  N46  1  0.55519571  0.20306274  0.83985133  1
  N  N47  1  0.44339347  0.09183838  0.59108552  1
  N  N48  1  0.22529661  0.53713159  0.33881643  1
  N  N49  1  0.11150475  0.42724675  0.09161680  1
  N  N50  1  0.89146808  0.53974520  0.83776426  1
  N  N51  1  0.79531635  0.39902089  0.60182169  1
  N  N52  1  0.55691813  0.54527327  0.39998270  1
  N  N53  1  0.44460766  0.42699016  0.08618526  1
  N  N54  1  0.22192801  0.53330927  0.83841419  1
  N  N55  1  0.11022776  0.42632624  0.58619039  1
  N  N56  1  0.88850569  0.53862715  0.34011098  1
  N  N57  1  0.78311607  0.42456065  0.08012839  1
  N  N58  1  0.54105519  0.56733754  0.87582106  1
  N  N59  1  0.44065437  0.42149243  0.59404806  1
  N  N60  1  0.22884099  0.87265217  0.40016209  1
  N  N61  1  0.11110293  0.76186861  0.10038561  1
  N  N62  1  0.88268426  0.87412427  0.83955102  1
  N  N63  1  0.77473290  0.75970612  0.59084442  1
  N  N64  1  0.55910277  0.87614712  0.34160489  1
  N  N65  1  0.44211682  0.76043503  0.14467155  1
  N  N66  1  0.25149336  0.85767993  0.87594405  1
  N  N67  1  0.10730464  0.75795802  0.61131996  1
  N  N68  1  0.88622601  0.87617597  0.34166115  1
  N  N69  1  0.77837662  0.76074172  0.09010295  1
  N  N70  1  0.54594776  0.86240385  0.84580793  1
  N  N71  1  0.43865552  0.75537480  0.66022073  1
