# generated using pymatgen
data_Al17BN18
_symmetry_space_group_name_H-M   'P 1'
_cell_length_a   9.32558866
_cell_length_b   9.33072193
_cell_length_c   10.12926120
_cell_angle_alpha   90.10206526
_cell_angle_beta   90.02829311
_cell_angle_gamma   60.16205180
_symmetry_Int_Tables_number   1
_chemical_formula_structural   Al17BN18
_chemical_formula_sum   'Al34 B2 N36'
_cell_volume   764.55024996
_cell_formula_units_Z   2
loop_
 _symmetry_equiv_pos_site_id
 _symmetry_equiv_pos_as_xyz
  1  'x, y, z'
loop_
 _atom_site_type_symbol
 _atom_site_label
 _atom_site_symmetry_multiplicity
 _atom_site_fract_x
 _atom_site_fract_y
 _atom_site_fract_z
 _atom_site_occupancy
  Al  Al0  1  0.10396890  0.10182875  0.39287585  1
  Al  Al1  1  0.22046259  0.20330930  0.13705862  1
  Al  Al2  1  0.78073649  0.09758488  0.87128731  1
  Al  Al3  1  0.44408057  0.09447380  0.39096074  1
  Al  Al4  1  0.55504615  0.20985006  0.08852529  1
  Al  Al5  1  0.11169774  0.09500813  0.87442723  1
  Al  Al6  1  0.21472945  0.20824340  0.63771990  1
  Al  Al7  1  0.77840832  0.10360554  0.39168088  1
  Al  Al8  1  0.88945519  0.20686628  0.13315001  1
  Al  Al9  1  0.44008120  0.08706652  0.88423983  1
  Al  Al10  1  0.55934959  0.20348416  0.61600344  1
  Al  Al11  1  0.10919108  0.42530917  0.38211037  1
  Al  Al12  1  0.22415922  0.54318237  0.07209244  1
  Al  Al13  1  0.77919898  0.42751874  0.87463059  1
  Al  Al14  1  0.89203816  0.53124976  0.63773822  1
  Al  Al15  1  0.44760445  0.42974719  0.31889641  1
  Al  Al16  1  0.54934032  0.55051093  0.06037524  1
  Al  Al17  1  0.10867373  0.42466278  0.88956455  1
  Al  Al18  1  0.22507364  0.54079777  0.56390395  1
  Al  Al19  1  0.78554452  0.42044495  0.39272144  1
  Al  Al20  1  0.88616838  0.53785007  0.13699179  1
  Al  Al21  1  0.43884249  0.43727575  0.81714659  1
  Al  Al22  1  0.55475038  0.53594175  0.57743034  1
  Al  Al23  1  0.11024872  0.76627817  0.31863042  1
  Al  Al24  1  0.23227966  0.86619907  0.06078537  1
  Al  Al25  1  0.77004554  0.75486915  0.88547553  1
  Al  Al26  1  0.89458011  0.87202822  0.57698233  1
  Al  Al27  1  0.44181651  0.75963920  0.32144846  1
  Al  Al28  1  0.55983114  0.87723593  0.13974708  1
  Al  Al29  1  0.11784285  0.75626647  0.81623413  1
  Al  Al30  1  0.21992398  0.87086192  0.57829024  1
  Al  Al31  1  0.77457799  0.75890780  0.38949194  1
  Al  Al32  1  0.89611220  0.87025075  0.06436195  1
  Al  Al33  1  0.55483601  0.86978148  0.64458376  1
  B  B34  1  0.88988914  0.20602845  0.64116142  1
  B  B35  1  0.43988794  0.75648723  0.80975075  1
  N  N36  1  0.22226940  0.20234450  0.32634560  1
  N  N37  1  0.10757319  0.09837026  0.06696689  1
  N  N38  1  0.89032414  0.20624248  0.80320976  1
  N  N39  1  0.79192211  0.10908928  0.58951512  1
  N  N40  1  0.55529672  0.20872231  0.36111996  1
  N  N41  1  0.44118337  0.09431970  0.07418088  1
  N  N42  1  0.22116627  0.20772674  0.82393582  1
  N  N43  1  0.08314379  0.11012524  0.58671318  1
  N  N44  1  0.89004318  0.20641899  0.32077430  1
  N  N45  1  0.78013440  0.10054131  0.06829447  1
  N  N46  1  0.55334194  0.20458273  0.84361746  1
  N  N47  1  0.44070364  0.08896093  0.58170063  1
  N  N48  1  0.22470781  0.54340123  0.37310711  1
  N  N49  1  0.10844124  0.42523609  0.08122233  1
  N  N50  1  0.89174356  0.53713117  0.82394926  1
  N  N51  1  0.79409049  0.39929920  0.58657185  1
  N  N52  1  0.55344135  0.54368930  0.38694565  1
  N  N53  1  0.44630963  0.43379011  0.12699824  1
  N  N54  1  0.22434972  0.54111342  0.88229839  1
  N  N55  1  0.10889615  0.42468088  0.57306849  1
  N  N56  1  0.88623989  0.53843150  0.32605097  1
  N  N57  1  0.78149758  0.42469784  0.06715166  1
  N  N58  1  0.53970593  0.56679223  0.86766312  1
  N  N59  1  0.43905216  0.43135845  0.63065998  1
  N  N60  1  0.22610786  0.86988697  0.38746552  1
  N  N61  1  0.11245012  0.76589794  0.12910371  1
  N  N62  1  0.89507335  0.86628888  0.86911415  1
  N  N63  1  0.77265971  0.75538238  0.58113421  1
  N  N64  1  0.55842818  0.87696969  0.32905472  1
  N  N65  1  0.44245613  0.76070932  0.13308915  1
  N  N66  1  0.25011452  0.85542917  0.86749064  1
  N  N67  1  0.11264160  0.75630964  0.63123229  1
  N  N68  1  0.89364167  0.87224941  0.38178230  1
  N  N69  1  0.77625838  0.75784150  0.07667032  1
  N  N70  1  0.54464995  0.86083201  0.83274348  1
  N  N71  1  0.43760603  0.75383459  0.64821759  1
