# generated using pymatgen
data_Al17BN18
_symmetry_space_group_name_H-M   'P 1'
_cell_length_a   9.30435485
_cell_length_b   9.30435437
_cell_length_c   10.14016120
_cell_angle_alpha   90.04875643
_cell_angle_beta   90.04878978
_cell_angle_gamma   60.17779661
_symmetry_Int_Tables_number   1
_chemical_formula_structural   Al17BN18
_chemical_formula_sum   'Al34 B2 N36'
_cell_volume   761.59324706
_cell_formula_units_Z   2
loop_
 _symmetry_equiv_pos_site_id
 _symmetry_equiv_pos_as_xyz
  1  'x, y, z'
loop_
 _atom_site_type_symbol
 _atom_site_label
 _atom_site_symmetry_multiplicity
 _atom_site_fract_x
 _atom_site_fract_y
 _atom_site_fract_z
 _atom_site_occupancy
  Al  Al0  1  0.10331289  0.10255292  0.40386287  1
  Al  Al1  1  0.22073994  0.20298480  0.14734002  1
  Al  Al2  1  0.77832478  0.09498825  0.89360474  1
  Al  Al3  1  0.44522074  0.09448570  0.39979434  1
  Al  Al4  1  0.55962847  0.20113526  0.14692794  1
  Al  Al5  1  0.11120003  0.09565691  0.88460930  1
  Al  Al6  1  0.21617822  0.20816856  0.64846202  1
  Al  Al7  1  0.78029823  0.09696123  0.40214792  1
  Al  Al8  1  0.88951227  0.20617643  0.14371034  1
  Al  Al9  1  0.44298419  0.08953561  0.89884691  1
  Al  Al10  1  0.56167427  0.19962289  0.64910978  1
  Al  Al11  1  0.10835586  0.42501925  0.39377442  1
  Al  Al12  1  0.22535166  0.54201446  0.08156848  1
  Al  Al13  1  0.77899551  0.42786231  0.88460943  1
  Al  Al14  1  0.89150484  0.53284214  0.64846202  1
  Al  Al15  1  0.44572060  0.43467970  0.32963638  1
  Al  Al16  1  0.54898838  0.54856527  0.07078300  1
  Al  Al17  1  0.10793979  0.42460349  0.90013838  1
  Al  Al18  1  0.22431307  0.54097696  0.57624602  1
  Al  Al19  1  0.78589131  0.41997539  0.40386308  1
  Al  Al20  1  0.88632148  0.53740499  0.14734039  1
  Al  Al21  1  0.43932270  0.43735364  0.82848894  1
  Al  Al22  1  0.55447163  0.53584851  0.58913312  1
  Al  Al23  1  0.11801729  0.76238332  0.32963585  1
  Al  Al24  1  0.23190226  0.86564983  0.07078282  1
  Al  Al25  1  0.77287143  0.75964813  0.89884728  1
  Al  Al26  1  0.88295661  0.87833934  0.64910994  1
  Al  Al27  1  0.44302858  0.75969128  0.33223034  1
  Al  Al28  1  0.55901822  0.87568361  0.14894008  1
  Al  Al29  1  0.12068922  0.75598578  0.82848858  1
  Al  Al30  1  0.21918427  0.87113430  0.58913340  1
  Al  Al31  1  0.77782168  0.76188531  0.39979417  1
  Al  Al32  1  0.88447019  0.87629376  0.14692826  1
  Al  Al33  1  0.55501364  0.87167759  0.65429578  1
  B  B34  1  0.88954281  0.20620629  0.65130083  1
  B  B35  1  0.44127261  0.75793593  0.82058368  1
  N  N36  1  0.22237161  0.20246706  0.33700790  1
  N  N37  1  0.10733448  0.09835050  0.07724366  1
  N  N38  1  0.88781030  0.20447310  0.81461239  1
  N  N39  1  0.78942207  0.10608685  0.59311200  1
  N  N40  1  0.55974317  0.20157854  0.34015922  1
  N  N41  1  0.44330380  0.09542954  0.08710327  1
  N  N42  1  0.22305493  0.20716125  0.83478450  1
  N  N43  1  0.08266749  0.11065761  0.59789105  1
  N  N44  1  0.88921896  0.20588192  0.33188246  1
  N  N45  1  0.77879390  0.09545895  0.08262079  1
  N  N46  1  0.55665452  0.20013899  0.83978016  1
  N  N47  1  0.44299278  0.09204510  0.58866719  1
  N  N48  1  0.22529344  0.54195640  0.38635248  1
  N  N49  1  0.10825458  0.42491823  0.09139979  1
  N  N50  1  0.89049768  0.53971912  0.83478447  1
  N  N51  1  0.79399473  0.39933096  0.59789125  1
  N  N52  1  0.55354923  0.54351461  0.39907873  1
  N  N53  1  0.44618402  0.43404152  0.13845330  1
  N  N54  1  0.22413914  0.54080238  0.89242193  1
  N  N55  1  0.10804237  0.42470620  0.58420455  1
  N  N56  1  0.88580358  0.53903589  0.33700810  1
  N  N57  1  0.78168845  0.42399824  0.07724376  1
  N  N58  1  0.53968229  0.56713271  0.87811682  1
  N  N59  1  0.43974178  0.43007882  0.64023326  1
  N  N60  1  0.22685206  0.87021130  0.39907889  1
  N  N61  1  0.11737705  0.76284723  0.13845293  1
  N  N62  1  0.88347466  0.87331833  0.83978028  1
  N  N63  1  0.77538054  0.75965679  0.58866701  1
  N  N64  1  0.55940892  0.87607313  0.33956758  1
  N  N65  1  0.44285433  0.75951759  0.14370601  1
  N  N66  1  0.25046950  0.85634440  0.87811661  1
  N  N67  1  0.11341296  0.75640597  0.64023302  1
  N  N68  1  0.88491581  0.87640653  0.34015932  1
  N  N69  1  0.77876454  0.75996895  0.08710362  1
  N  N70  1  0.54542811  0.86209220  0.84353340  1
  N  N71  1  0.43840755  0.75507151  0.65879487  1
