# generated using pymatgen
data_Al17BN18
_symmetry_space_group_name_H-M   'P 1'
_cell_length_a   9.32768360
_cell_length_b   9.32993031
_cell_length_c   10.13408384
_cell_angle_alpha   90.09279641
_cell_angle_beta   90.03149833
_cell_angle_gamma   60.15789364
_symmetry_Int_Tables_number   1
_chemical_formula_structural   Al17BN18
_chemical_formula_sum   'Al34 B2 N36'
_cell_volume   764.98959099
_cell_formula_units_Z   2
loop_
 _symmetry_equiv_pos_site_id
 _symmetry_equiv_pos_as_xyz
  1  'x, y, z'
loop_
 _atom_site_type_symbol
 _atom_site_label
 _atom_site_symmetry_multiplicity
 _atom_site_fract_x
 _atom_site_fract_y
 _atom_site_fract_z
 _atom_site_occupancy
  Al  Al0  1  0.10094615  0.10044876  0.39543239  1
  Al  Al1  1  0.22263381  0.20068939  0.13776342  1
  Al  Al2  1  0.77838404  0.09673249  0.81137018  1
  Al  Al3  1  0.43715966  0.09627716  0.39169434  1
  Al  Al4  1  0.55858745  0.20790434  0.06668540  1
  Al  Al5  1  0.11330900  0.09570868  0.87791651  1
  Al  Al6  1  0.21528991  0.21047769  0.63991898  1
  Al  Al7  1  0.77343458  0.08919115  0.31667246  1
  Al  Al8  1  0.89143059  0.20722003  0.13495740  1
  Al  Al9  1  0.43873656  0.09462420  0.87874217  1
  Al  Al10  1  0.56317187  0.21182665  0.57063404  1
  Al  Al11  1  0.10872273  0.42381910  0.38392530  1
  Al  Al12  1  0.22418050  0.54116481  0.07409209  1
  Al  Al13  1  0.77854992  0.43047003  0.87847845  1
  Al  Al14  1  0.89392968  0.53068012  0.63928017  1
  Al  Al15  1  0.44709842  0.42885461  0.31937277  1
  Al  Al16  1  0.54785310  0.54597333  0.06341089  1
  Al  Al17  1  0.10832509  0.42571255  0.89212768  1
  Al  Al18  1  0.22463518  0.54180761  0.56659063  1
  Al  Al19  1  0.78399872  0.41650728  0.39558813  1
  Al  Al20  1  0.88510874  0.53800516  0.13751244  1
  Al  Al21  1  0.44125671  0.43541653  0.81846496  1
  Al  Al22  1  0.55424896  0.53898402  0.58152697  1
  Al  Al23  1  0.11255290  0.76348766  0.31931529  1
  Al  Al24  1  0.22926020  0.86473866  0.06325349  1
  Al  Al25  1  0.77555879  0.75953525  0.86245321  1
  Al  Al26  1  0.89416807  0.88011086  0.57177664  1
  Al  Al27  1  0.44389758  0.76000293  0.32323910  1
  Al  Al28  1  0.55241649  0.86434491  0.06532779  1
  Al  Al29  1  0.11861217  0.75841120  0.81829461  1
  Al  Al30  1  0.22171752  0.87154164  0.58159017  1
  Al  Al31  1  0.77964900  0.75426685  0.38562069  1
  Al  Al32  1  0.89045827  0.87330562  0.06537366  1
  Al  Al33  1  0.55180791  0.86937016  0.58576300  1
  B  B34  1  0.89343172  0.21041557  0.64640575  1
  B  B35  1  0.44330849  0.76083392  0.81495679  1
  N  N36  1  0.22050552  0.20109624  0.32712532  1
  N  N37  1  0.10712027  0.09670944  0.06877481  1
  N  N38  1  0.89566804  0.21284698  0.80792244  1
  N  N39  1  0.78843736  0.10589559  0.62350331  1
  N  N40  1  0.55691835  0.20893014  0.37963812  1
  N  N41  1  0.43937063  0.09473076  0.07455094  1
  N  N42  1  0.22049339  0.21038297  0.82497918  1
  N  N43  1  0.08317413  0.11113537  0.58873835  1
  N  N44  1  0.89071795  0.20621141  0.32307191  1
  N  N45  1  0.77459507  0.08977851  0.12735949  1
  N  N46  1  0.56064951  0.21123339  0.87522358  1
  N  N47  1  0.43830049  0.10037735  0.58742796  1
  N  N48  1  0.22486095  0.54139849  0.37502224  1
  N  N49  1  0.10821649  0.42350245  0.08301635  1
  N  N50  1  0.89385734  0.53610149  0.82471698  1
  N  N51  1  0.79379594  0.39988462  0.58854461  1
  N  N52  1  0.55181262  0.54198482  0.38912466  1
  N  N53  1  0.44703583  0.42822548  0.13024289  1
  N  N54  1  0.22439005  0.54193395  0.88321725  1
  N  N55  1  0.10883180  0.42545891  0.57388268  1
  N  N56  1  0.88597932  0.53496880  0.32816345  1
  N  N57  1  0.77996184  0.42308359  0.06917013  1
  N  N58  1  0.53926976  0.56731368  0.86973091  1
  N  N59  1  0.44156441  0.42950554  0.63235887  1
  N  N60  1  0.22568445  0.86826034  0.38922118  1
  N  N61  1  0.11118499  0.76408730  0.12997834  1
  N  N62  1  0.89344140  0.87825305  0.87402289  1
  N  N63  1  0.78167115  0.75844416  0.59741583  1
  N  N64  1  0.55211387  0.86704764  0.38643205  1
  N  N65  1  0.44316014  0.75993295  0.13552101  1
  N  N66  1  0.25013181  0.85646140  0.86959204  1
  N  N67  1  0.11243201  0.75874665  0.63232752  1
  N  N68  1  0.89252525  0.87278761  0.38111737  1
  N  N69  1  0.77913992  0.75548628  0.07976143  1
  N  N70  1  0.54037460  0.85809734  0.86590027  1
  N  N71  1  0.44286055  0.76020783  0.65308545  1
