# generated using pymatgen
data_Al17BN18
_symmetry_space_group_name_H-M   'P 1'
_cell_length_a   9.32765668
_cell_length_b   9.32823158
_cell_length_c   10.03289081
_cell_angle_alpha   89.82947734
_cell_angle_beta   89.74664940
_cell_angle_gamma   60.09055971
_symmetry_Int_Tables_number   1
_chemical_formula_structural   Al17BN18
_chemical_formula_sum   'Al34 B2 N36'
_cell_volume   756.69307573
_cell_formula_units_Z   2
loop_
 _symmetry_equiv_pos_site_id
 _symmetry_equiv_pos_as_xyz
  1  'x, y, z'
loop_
 _atom_site_type_symbol
 _atom_site_label
 _atom_site_symmetry_multiplicity
 _atom_site_fract_x
 _atom_site_fract_y
 _atom_site_fract_z
 _atom_site_occupancy
  Al  Al0  1  0.10185427  0.10484226  0.40131407  1
  Al  Al1  1  0.22171342  0.20424278  0.14838959  1
  Al  Al2  1  0.77848725  0.09613221  0.89380708  1
  Al  Al3  1  0.44527918  0.09390779  0.40274692  1
  Al  Al4  1  0.55713618  0.20400455  0.14834080  1
  Al  Al5  1  0.11265644  0.09575610  0.88660761  1
  Al  Al6  1  0.21699856  0.20782214  0.64911686  1
  Al  Al7  1  0.78038488  0.09694713  0.40226207  1
  Al  Al8  1  0.89020731  0.20409317  0.14569638  1
  Al  Al9  1  0.44205020  0.09016640  0.89873664  1
  Al  Al10  1  0.55971059  0.20630686  0.65085287  1
  Al  Al11  1  0.11121950  0.42814408  0.39846284  1
  Al  Al12  1  0.22174967  0.53967944  0.14834151  1
  Al  Al13  1  0.77483573  0.43243566  0.88969811  1
  Al  Al14  1  0.89069142  0.53384574  0.64944621  1
  Al  Al15  1  0.44244552  0.42341939  0.39734330  1
  Al  Al16  1  0.55619372  0.54104779  0.11546490  1
  Al  Al17  1  0.11091941  0.42726295  0.90033099  1
  Al  Al18  1  0.22131298  0.53744337  0.64983316  1
  Al  Al19  1  0.78733467  0.41913645  0.40058855  1
  Al  Al20  1  0.88858631  0.53850716  0.14875674  1
  Al  Al21  1  0.44147602  0.43396306  0.89700261  1
  Al  Al22  1  0.55788287  0.53699740  0.59200678  1
  Al  Al23  1  0.10640652  0.75936413  0.39824543  1
  Al  Al24  1  0.23236998  0.86882261  0.08573039  1
  Al  Al25  1  0.77307145  0.75860067  0.89909113  1
  Al  Al26  1  0.88888285  0.87672125  0.65065208  1
  Al  Al27  1  0.44192086  0.76242140  0.35296895  1
  Al  Al28  1  0.55873038  0.87524430  0.15413130  1
  Al  Al29  1  0.11448471  0.75625468  0.89441174  1
  Al  Al30  1  0.22035395  0.87447103  0.58511695  1
  Al  Al31  1  0.77710115  0.76207740  0.40268264  1
  Al  Al32  1  0.88903312  0.87352221  0.14802974  1
  Al  Al33  1  0.55264794  0.86924922  0.64953415  1
  B  B34  1  0.88939217  0.20674638  0.65245919  1
  B  B35  1  0.44559294  0.75817639  0.85917549  1
  N  N36  1  0.22237708  0.20529224  0.34009333  1
  N  N37  1  0.10778845  0.09956868  0.08074677  1
  N  N38  1  0.88752869  0.20675657  0.81795580  1
  N  N39  1  0.79002402  0.10702148  0.59588174  1
  N  N40  1  0.55788435  0.20298343  0.33973470  1
  N  N41  1  0.44439910  0.09361798  0.08841971  1
  N  N42  1  0.22286243  0.20772990  0.83738423  1
  N  N43  1  0.08282962  0.11208217  0.59943919  1
  N  N44  1  0.88901248  0.20532945  0.33320931  1
  N  N45  1  0.77864902  0.09512280  0.08485213  1
  N  N46  1  0.55471353  0.20607886  0.84039095  1
  N  N47  1  0.44455650  0.09412564  0.59350326  1
  N  N48  1  0.22186660  0.53922154  0.33735664  1
  N  N49  1  0.11134225  0.42741510  0.09013835  1
  N  N50  1  0.89086256  0.53890959  0.83818878  1
  N  N51  1  0.79409095  0.40065162  0.59731502  1
  N  N52  1  0.56154886  0.53210280  0.37276500  1
  N  N53  1  0.44356857  0.42560358  0.08916572  1
  N  N54  1  0.22204007  0.53684153  0.83850488  1
  N  N55  1  0.11086829  0.42767200  0.58762075  1
  N  N56  1  0.88867836  0.53919116  0.34022762  1
  N  N57  1  0.78278977  0.42411755  0.08348232  1
  N  N58  1  0.53940576  0.57220682  0.87176057  1
  N  N59  1  0.44055878  0.42406384  0.58981811  1
  N  N60  1  0.21556461  0.87860695  0.38534088  1
  N  N61  1  0.10932989  0.75984586  0.08672586  1
  N  N62  1  0.88760023  0.87221588  0.83995683  1
  N  N63  1  0.77730980  0.76119317  0.59339865  1
  N  N64  1  0.56068356  0.87743384  0.34341719  1
  N  N65  1  0.44187806  0.76157806  0.15170978  1
  N  N66  1  0.25695728  0.85513877  0.88036435  1
  N  N67  1  0.10699703  0.75662867  0.59216461  1
  N  N68  1  0.88670777  0.87440443  0.33966611  1
  N  N69  1  0.77750552  0.76095856  0.08875524  1
  N  N70  1  0.54153750  0.85784888  0.84497447  1
  N  N71  1  0.44550182  0.76140904  0.59780102  1
