# generated using pymatgen
data_Al17BN18
_symmetry_space_group_name_H-M   'P 1'
_cell_length_a   9.30435600
_cell_length_b   9.30435553
_cell_length_c   10.14015999
_cell_angle_alpha   90.04880780
_cell_angle_beta   90.04882265
_cell_angle_gamma   60.17780926
_symmetry_Int_Tables_number   1
_chemical_formula_structural   Al17BN18
_chemical_formula_sum   'Al34 B2 N36'
_cell_volume   761.59344035
_cell_formula_units_Z   2
loop_
 _symmetry_equiv_pos_site_id
 _symmetry_equiv_pos_as_xyz
  1  'x, y, z'
loop_
 _atom_site_type_symbol
 _atom_site_label
 _atom_site_symmetry_multiplicity
 _atom_site_fract_x
 _atom_site_fract_y
 _atom_site_fract_z
 _atom_site_occupancy
  Al  Al0  1  0.10331642  0.10255495  0.39409457  1
  Al  Al1  1  0.22074299  0.20298696  0.13757018  1
  Al  Al2  1  0.77832798  0.09498990  0.88383589  1
  Al  Al3  1  0.44522427  0.09448738  0.39002250  1
  Al  Al4  1  0.55963163  0.20113664  0.13715813  1
  Al  Al5  1  0.11120336  0.09565876  0.87484056  1
  Al  Al6  1  0.21618189  0.20816975  0.63869191  1
  Al  Al7  1  0.78030163  0.09696312  0.39238038  1
  Al  Al8  1  0.88951546  0.20617811  0.13394295  1
  Al  Al9  1  0.44298736  0.08953819  0.88907527  1
  Al  Al10  1  0.56167750  0.19962452  0.63933818  1
  Al  Al11  1  0.10835965  0.42502148  0.38400722  1
  Al  Al12  1  0.22535474  0.54201599  0.07179847  1
  Al  Al13  1  0.77899890  0.42786408  0.87484065  1
  Al  Al14  1  0.89150756  0.53284426  0.63869188  1
  Al  Al15  1  0.44572359  0.43468215  0.31986569  1
  Al  Al16  1  0.54899138  0.54856681  0.06101361  1
  Al  Al17  1  0.10794325  0.42460544  0.89036736  1
  Al  Al18  1  0.22431667  0.54097894  0.56647889  1
  Al  Al19  1  0.78589490  0.41997738  0.39409477  1
  Al  Al20  1  0.88632514  0.53740651  0.13757058  1
  Al  Al21  1  0.43932649  0.43735520  0.81871804  1
  Al  Al22  1  0.55447499  0.53585062  0.57936371  1
  Al  Al23  1  0.11802127  0.76238473  0.31986519  1
  Al  Al24  1  0.23190532  0.86565132  0.06101346  1
  Al  Al25  1  0.77287554  0.75964975  0.88907564  1
  Al  Al26  1  0.88295980  0.87834100  0.63933833  1
  Al  Al27  1  0.44303247  0.75969363  0.32246248  1
  Al  Al28  1  0.55902081  0.87568470  0.13916699  1
  Al  Al29  1  0.12069226  0.75598807  0.81871766  1
  Al  Al30  1  0.21918792  0.87113611  0.57936400  1
  Al  Al31  1  0.77782484  0.76188733  0.39002236  1
  Al  Al32  1  0.88447312  0.87629536  0.13715849  1
  Al  Al33  1  0.55501688  0.87167932  0.64452740  1
  B  B34  1  0.88954624  0.20620814  0.64153268  1
  B  B35  1  0.44127574  0.75793754  0.81081512  1
  N  N36  1  0.22237446  0.20246971  0.32723841  1
  N  N37  1  0.10733757  0.09835190  0.06747541  1
  N  N38  1  0.88781368  0.20447490  0.80484371  1
  N  N39  1  0.78942553  0.10608873  0.58334343  1
  N  N40  1  0.55974676  0.20158090  0.33038982  1
  N  N41  1  0.44330665  0.09543159  0.07733209  1
  N  N42  1  0.22305806  0.20716278  0.82501435  1
  N  N43  1  0.08267091  0.11065915  0.58812244  1
  N  N44  1  0.88922232  0.20588370  0.32211500  1
  N  N45  1  0.77879720  0.09546064  0.07285203  1
  N  N46  1  0.55665814  0.20014087  0.83000936  1
  N  N47  1  0.44299622  0.09204616  0.57889644  1
  N  N48  1  0.22529727  0.54195866  0.37658481  1
  N  N49  1  0.10825790  0.42492001  0.08162925  1
  N  N50  1  0.89050077  0.53972067  0.82501429  1
  N  N51  1  0.79399780  0.39933282  0.58812264  1
  N  N52  1  0.55355281  0.54351663  0.38930940  1
  N  N53  1  0.44618683  0.43404307  0.12868338  1
  N  N54  1  0.22414268  0.54080445  0.88265131  1
  N  N55  1  0.10804605  0.42470829  0.57443703  1
  N  N56  1  0.88580780  0.53903719  0.32723864  1
  N  N57  1  0.78169136  0.42399981  0.06747552  1
  N  N58  1  0.53968543  0.56713450  0.86834793  1
  N  N59  1  0.43974576  0.43008050  0.63046324  1
  N  N60  1  0.22685559  0.87021333  0.38930957  1
  N  N61  1  0.11738018  0.76284850  0.12868306  1
  N  N62  1  0.88347803  0.87332041  0.83000946  1
  N  N63  1  0.77538315  0.75965865  0.57889628  1
  N  N64  1  0.55941262  0.87607531  0.32979578  1
  N  N65  1  0.44285685  0.75951861  0.13393747  1
  N  N66  1  0.25047281  0.85634601  0.86834774  1
  N  N67  1  0.11341621  0.75640838  0.63046299  1
  N  N68  1  0.88491969  0.87640857  0.33038995  1
  N  N69  1  0.77876814  0.75997024  0.07733245  1
  N  N70  1  0.54543132  0.86209386  0.83376475  1
  N  N71  1  0.43841068  0.75507311  0.64902620  1
