# generated using pymatgen
data_Al17BN18
_symmetry_space_group_name_H-M   'P 1'
_cell_length_a   9.30435579
_cell_length_b   9.30435601
_cell_length_c   10.14015986
_cell_angle_alpha   90.04879300
_cell_angle_beta   90.04879611
_cell_angle_gamma   60.17781486
_symmetry_Int_Tables_number   1
_chemical_formula_structural   Al17BN18
_chemical_formula_sum   'Al34 B2 N36'
_cell_volume   761.59349554
_cell_formula_units_Z   2
loop_
 _symmetry_equiv_pos_site_id
 _symmetry_equiv_pos_as_xyz
  1  'x, y, z'
loop_
 _atom_site_type_symbol
 _atom_site_label
 _atom_site_symmetry_multiplicity
 _atom_site_fract_x
 _atom_site_fract_y
 _atom_site_fract_z
 _atom_site_occupancy
  Al  Al0  1  0.10138086  0.10099654  0.39246318  1
  Al  Al1  1  0.21526557  0.20426254  0.13361184  1
  Al  Al2  1  0.77826869  0.09496962  0.80894878  1
  Al  Al3  1  0.44881293  0.09035427  0.31631831  1
  Al  Al4  1  0.55546165  0.20476213  0.06345452  1
  Al  Al5  1  0.11409815  0.09551172  0.87411361  1
  Al  Al6  1  0.21259306  0.21066157  0.63475900  1
  Al  Al7  1  0.77426346  0.09096442  0.31431032  1
  Al  Al8  1  0.89025404  0.20695404  0.13101482  1
  Al  Al9  1  0.45032458  0.08830927  0.81413903  1
  Al  Al10  1  0.56040943  0.20700060  0.56440146  1
  Al  Al11  1  0.10793274  0.42463211  0.38167896  1
  Al  Al12  1  0.22492729  0.54162554  0.06946922  1
  Al  Al13  1  0.77881358  0.43079823  0.87411309  1
  Al  Al14  1  0.89396076  0.52929604  0.63475894  1
  Al  Al15  1  0.44696176  0.42924380  0.31590594  1
  Al  Al16  1  0.54739403  0.54667101  0.05938191  1
  Al  Al17  1  0.10896952  0.42566897  0.88699734  1
  Al  Al18  1  0.22534410  0.54204427  0.56310960  1
  Al  Al19  1  0.78429608  0.41808108  0.39246339  1
  Al  Al20  1  0.88756398  0.53196507  0.13361179  1
  Al  Al21  1  0.44177956  0.43380546  0.81478504  1
  Al  Al22  1  0.55429027  0.53878476  0.57863703  1
  Al  Al23  1  0.11254326  0.76366192  0.31590600  1
  Al  Al24  1  0.22997177  0.86409153  0.05938197  1
  Al  Al25  1  0.77160881  0.76702644  0.81413944  1
  Al  Al26  1  0.89029893  0.87711186  0.56440117  1
  Al  Al27  1  0.44377081  0.76047142  0.31953441  1
  Al  Al28  1  0.55298568  0.86968556  0.06109666  1
  Al  Al29  1  0.11710492  0.75847914  0.81478479  1
  Al  Al30  1  0.22208467  0.87098970  0.57863674  1
  Al  Al31  1  0.77365480  0.76551169  0.31631839  1
  Al  Al32  1  0.88806234  0.87216108  0.06345486  1
  Al  Al33  1  0.55495921  0.87165980  0.56964146  1
  B  B34  1  0.89201116  0.20871188  0.64266188  1
  B  B35  1  0.44374120  0.76044101  0.81194429  1
  N  N36  1  0.21590589  0.20379978  0.32479392  1
  N  N37  1  0.10643154  0.09643344  0.06416790  1
  N  N38  1  0.89487567  0.21157575  0.80445101  1
  N  N39  1  0.78785444  0.10455630  0.61971136  1
  N  N40  1  0.55451662  0.20668032  0.37614469  1
  N  N41  1  0.44836727  0.09024027  0.12308687  1
  N  N42  1  0.21986856  0.21024030  0.82301364  1
  N  N43  1  0.08281364  0.11030293  0.58512882  1
  N  N44  1  0.89042895  0.20712941  0.31953988  1
  N  N45  1  0.77387348  0.09057321  0.12368162  1
  N  N46  1  0.55790267  0.20699079  0.87458058  1
  N  N47  1  0.44980744  0.09332970  0.62346785  1
  N  N48  1  0.22502872  0.54172883  0.37184748  1
  N  N49  1  0.10798967  0.42468835  0.07689168  1
  N  N50  1  0.89354060  0.53657028  0.82301365  1
  N  N51  1  0.79360304  0.39951478  0.58512915  1
  N  N52  1  0.55159601  0.54264960  0.38600175  1
  N  N53  1  0.44747937  0.42761213  0.12623791  1
  N  N54  1  0.22524035  0.54193997  0.87903934  1
  N  N55  1  0.10914443  0.42584519  0.57082610  1
  N  N56  1  0.88710048  0.53260496  0.32479382  1
  N  N57  1  0.77973547  0.42313094  0.06416740  1
  N  N58  1  0.53929051  0.56731594  0.86535431  1
  N  N59  1  0.44278645  0.42692963  0.62846281  1
  N  N60  1  0.22594899  0.86829644  0.38600154  1
  N  N61  1  0.11091244  0.76417780  0.12623797  1
  N  N62  1  0.89029052  0.87460366  0.87458086  1
  N  N63  1  0.77662853  0.76650989  0.62346826  1
  N  N64  1  0.55448924  0.87118889  0.38062527  1
  N  N65  1  0.44406534  0.76076468  0.13136208  1
  N  N66  1  0.25061621  0.85598918  0.86535433  1
  N  N67  1  0.11022844  0.75948697  0.62846253  1
  N  N68  1  0.88997949  0.87121729  0.37614439  1
  N  N69  1  0.77354054  0.76506670  0.12308686  1
  N  N70  1  0.54386082  0.86056139  0.87013386  1
  N  N71  1  0.44547412  0.76217433  0.64863334  1
