# generated using pymatgen
data_Al17BN18
_symmetry_space_group_name_H-M   'P 1'
_cell_length_a   9.32004517
_cell_length_b   9.31394809
_cell_length_c   10.01855759
_cell_angle_alpha   89.72732317
_cell_angle_beta   90.03637259
_cell_angle_gamma   60.03046712
_symmetry_Int_Tables_number   1
_chemical_formula_structural   Al17BN18
_chemical_formula_sum   'Al34 B2 N36'
_cell_volume   753.37875186
_cell_formula_units_Z   2
loop_
 _symmetry_equiv_pos_site_id
 _symmetry_equiv_pos_as_xyz
  1  'x, y, z'
loop_
 _atom_site_type_symbol
 _atom_site_label
 _atom_site_symmetry_multiplicity
 _atom_site_fract_x
 _atom_site_fract_y
 _atom_site_fract_z
 _atom_site_occupancy
  Al  Al0  1  0.11534367  0.09117897  0.30437658  1
  Al  Al1  1  0.22355650  0.20476517  0.05686346  1
  Al  Al2  1  0.78095409  0.09673925  0.81309676  1
  Al  Al3  1  0.44470986  0.09368072  0.30974932  1
  Al  Al4  1  0.55454139  0.20503591  0.05664636  1
  Al  Al5  1  0.11124146  0.09353853  0.81358834  1
  Al  Al6  1  0.21603225  0.20788647  0.55894436  1
  Al  Al7  1  0.77601255  0.09256056  0.30386653  1
  Al  Al8  1  0.88926775  0.20378188  0.08775900  1
  Al  Al9  1  0.44340462  0.09020517  0.80779246  1
  Al  Al10  1  0.55968354  0.20833221  0.55966129  1
  Al  Al11  1  0.11049272  0.42720648  0.30942398  1
  Al  Al12  1  0.22153437  0.53933728  0.06017850  1
  Al  Al13  1  0.77544959  0.42898784  0.87364700  1
  Al  Al14  1  0.89414222  0.53583197  0.56366714  1
  Al  Al15  1  0.44607430  0.42827778  0.30999896  1
  Al  Al16  1  0.54429736  0.54892797  0.05754386  1
  Al  Al17  1  0.11293665  0.42801757  0.80825465  1
  Al  Al18  1  0.22269251  0.53947177  0.55704023  1
  Al  Al19  1  0.78226575  0.41642482  0.36924359  1
  Al  Al20  1  0.89069807  0.54288037  0.06033700  1
  Al  Al21  1  0.44174307  0.43343345  0.80893491  1
  Al  Al22  1  0.55470487  0.53769985  0.57153733  1
  Al  Al23  1  0.11111132  0.76347641  0.30901746  1
  Al  Al24  1  0.22786533  0.86959126  0.05265096  1
  Al  Al25  1  0.77304654  0.76037981  0.80734635  1
  Al  Al26  1  0.89143931  0.87726248  0.55897932  1
  Al  Al27  1  0.44439688  0.76077940  0.31230098  1
  Al  Al28  1  0.55258094  0.86950533  0.05611171  1
  Al  Al29  1  0.11618923  0.75909118  0.80850567  1
  Al  Al30  1  0.21721199  0.87642919  0.56541728  1
  Al  Al31  1  0.77618055  0.76117975  0.31037367  1
  Al  Al32  1  0.88788998  0.87173535  0.05596384  1
  Al  Al33  1  0.55377014  0.87194983  0.56362485  1
  B  B34  1  0.88924754  0.20664129  0.60070134  1
  B  B35  1  0.44313664  0.76149465  0.80503442  1
  N  N36  1  0.22205375  0.20459228  0.36962248  1
  N  N37  1  0.12204655  0.08702466  0.11325663  1
  N  N38  1  0.89429141  0.19768517  0.87710800  1
  N  N39  1  0.79325051  0.10995851  0.61660829  1
  N  N40  1  0.55643245  0.20514016  0.36995317  1
  N  N41  1  0.44516229  0.09270935  0.11734640  1
  N  N42  1  0.22275839  0.20590816  0.86637219  1
  N  N43  1  0.08128333  0.11001715  0.61780770  1
  N  N44  1  0.88956591  0.20480742  0.31641990  1
  N  N45  1  0.77237978  0.08881000  0.11439017  1
  N  N46  1  0.55527077  0.20584695  0.86531099  1
  N  N47  1  0.44396454  0.09558528  0.61793791  1
  N  N48  1  0.22232304  0.53922504  0.36710266  1
  N  N49  1  0.11157333  0.42665809  0.11954267  1
  N  N50  1  0.89357724  0.54148560  0.86562539  1
  N  N51  1  0.79600224  0.39341009  0.58324376  1
  N  N52  1  0.55101282  0.54237850  0.37788849  1
  N  N53  1  0.44459783  0.42783681  0.11842304  1
  N  N54  1  0.22241403  0.53865880  0.87047047  1
  N  N55  1  0.11410847  0.42747960  0.61911411  1
  N  N56  1  0.89013759  0.54026978  0.37163629  1
  N  N57  1  0.77089005  0.43456958  0.07460054  1
  N  N58  1  0.53746026  0.56721982  0.85880147  1
  N  N59  1  0.44256514  0.42757433  0.62063713  1
  N  N60  1  0.22338317  0.87249471  0.37487528  1
  N  N61  1  0.11132902  0.76314286  0.11644173  1
  N  N62  1  0.88881041  0.87118222  0.86485719  1
  N  N63  1  0.77789620  0.76275875  0.61805561  1
  N  N64  1  0.55461080  0.87152183  0.37279238  1
  N  N65  1  0.44253182  0.76230135  0.12401754  1
  N  N66  1  0.24699902  0.86027265  0.85859760  1
  N  N67  1  0.11152915  0.75984240  0.61924583  1
  N  N68  1  0.88854882  0.87250408  0.36946451  1
  N  N69  1  0.77552772  0.76265179  0.11857028  1
  N  N70  1  0.54314199  0.85946672  0.86202194  1
  N  N71  1  0.44305105  0.76315617  0.63959342  1
