# generated using pymatgen
data_Al17BN18
_symmetry_space_group_name_H-M   'P 1'
_cell_length_a   9.30040065
_cell_length_b   9.31599346
_cell_length_c   10.17569030
_cell_angle_alpha   90.08633569
_cell_angle_beta   90.05582139
_cell_angle_gamma   60.12375045
_symmetry_Int_Tables_number   1
_chemical_formula_structural   Al17BN18
_chemical_formula_sum   'Al34 B2 N36'
_cell_volume   764.47810171
_cell_formula_units_Z   2
loop_
 _symmetry_equiv_pos_site_id
 _symmetry_equiv_pos_as_xyz
  1  'x, y, z'
loop_
 _atom_site_type_symbol
 _atom_site_label
 _atom_site_symmetry_multiplicity
 _atom_site_fract_x
 _atom_site_fract_y
 _atom_site_fract_z
 _atom_site_occupancy
  Al  Al0  1  0.10401100  0.10194375  0.39273007  1
  Al  Al1  1  0.22115991  0.20262563  0.13616556  1
  Al  Al2  1  0.77656986  0.10074269  0.87869194  1
  Al  Al3  1  0.44528581  0.09444409  0.38877747  1
  Al  Al4  1  0.56028324  0.20070595  0.13668111  1
  Al  Al5  1  0.11198992  0.09493196  0.87329498  1
  Al  Al6  1  0.21648372  0.20803028  0.63714835  1
  Al  Al7  1  0.77663488  0.10485198  0.39049432  1
  Al  Al8  1  0.88961536  0.20638628  0.13254499  1
  Al  Al9  1  0.44314585  0.08964052  0.88826781  1
  Al  Al10  1  0.56192818  0.19943985  0.63842036  1
  Al  Al11  1  0.10894338  0.42501716  0.38272382  1
  Al  Al12  1  0.22610508  0.54134345  0.07083920  1
  Al  Al13  1  0.77963359  0.42736270  0.87433302  1
  Al  Al14  1  0.89181970  0.53181933  0.63794740  1
  Al  Al15  1  0.44419780  0.43645649  0.31809947  1
  Al  Al16  1  0.54939740  0.54830802  0.05973746  1
  Al  Al17  1  0.10912133  0.42410293  0.88916606  1
  Al  Al18  1  0.22468604  0.54101853  0.56476251  1
  Al  Al19  1  0.78615474  0.42035924  0.39303012  1
  Al  Al20  1  0.88675823  0.53692210  0.13642906  1
  Al  Al21  1  0.43884008  0.43822935  0.81686690  1
  Al  Al22  1  0.55451662  0.53617978  0.57779761  1
  Al  Al23  1  0.10947811  0.76656732  0.31784846  1
  Al  Al24  1  0.23219304  0.86527436  0.05975897  1
  Al  Al25  1  0.76991135  0.75552149  0.88561583  1
  Al  Al26  1  0.89303090  0.87371531  0.57493362  1
  Al  Al27  1  0.44145152  0.75981525  0.32062750  1
  Al  Al28  1  0.55954670  0.87561051  0.13852331  1
  Al  Al29  1  0.11634986  0.75754787  0.81606434  1
  Al  Al30  1  0.21937371  0.87105029  0.57793221  1
  Al  Al31  1  0.77439583  0.75826246  0.38913250  1
  Al  Al32  1  0.89563376  0.87006306  0.06491531  1
  Al  Al33  1  0.55436350  0.87182816  0.64422240  1
  B  B34  1  0.88815018  0.20735071  0.63969623  1
  B  B35  1  0.43952731  0.75789063  0.80957360  1
  N  N36  1  0.22249086  0.20244088  0.32551057  1
  N  N37  1  0.10777396  0.09786782  0.06567208  1
  N  N38  1  0.88863068  0.20551815  0.80255057  1
  N  N39  1  0.78740584  0.11259319  0.58380739  1
  N  N40  1  0.55864400  0.20244866  0.32838348  1
  N  N41  1  0.44402677  0.09514989  0.07598083  1
  N  N42  1  0.22349730  0.20678702  0.82328221  1
  N  N43  1  0.08305967  0.11053585  0.58612225  1
  N  N44  1  0.88975182  0.20677396  0.32000004  1
  N  N45  1  0.77571646  0.10198968  0.07079948  1
  N  N46  1  0.55597395  0.19998968  0.82726498  1
  N  N47  1  0.44379158  0.09167134  0.57702162  1
  N  N48  1  0.22405767  0.54370197  0.37487830  1
  N  N49  1  0.10892033  0.42444786  0.07994563  1
  N  N50  1  0.89180424  0.53760224  0.82321846  1
  N  N51  1  0.79420018  0.39982844  0.58618233  1
  N  N52  1  0.55346941  0.54380627  0.38808686  1
  N  N53  1  0.44605396  0.43460181  0.12797110  1
  N  N54  1  0.22449305  0.54118950  0.88173604  1
  N  N55  1  0.10851830  0.42463506  0.57270276  1
  N  N56  1  0.88639560  0.53812553  0.32516321  1
  N  N57  1  0.78233255  0.42386348  0.06599733  1
  N  N58  1  0.54002995  0.56697054  0.86734581  1
  N  N59  1  0.43952486  0.43068296  0.62926796  1
  N  N60  1  0.22581100  0.86959615  0.38759539  1
  N  N61  1  0.11261234  0.76484877  0.12925355  1
  N  N62  1  0.89427355  0.86823753  0.87124252  1
  N  N63  1  0.77226234  0.75565827  0.58008841  1
  N  N64  1  0.55847428  0.87645772  0.32771402  1
  N  N65  1  0.44244283  0.75931149  0.13286102  1
  N  N66  1  0.25009137  0.85535342  0.86716538  1
  N  N67  1  0.11082506  0.75758340  0.63155514  1
  N  N68  1  0.89248604  0.87287384  0.38095251  1
  N  N69  1  0.77625670  0.75671539  0.07606151  1
  N  N70  1  0.54399499  0.86306471  0.83213018  1
  N  N71  1  0.43735754  0.75506125  0.64832888  1
