# generated using pymatgen
data_Al17BN18
_symmetry_space_group_name_H-M   'P 1'
_cell_length_a   9.32791244
_cell_length_b   9.32791024
_cell_length_c   10.07484431
_cell_angle_alpha   90.16531211
_cell_angle_beta   90.16563536
_cell_angle_gamma   60.27222863
_symmetry_Int_Tables_number   1
_chemical_formula_structural   Al17BN18
_chemical_formula_sum   'Al34 B2 N36'
_cell_volume   761.23752052
_cell_formula_units_Z   2
loop_
 _symmetry_equiv_pos_site_id
 _symmetry_equiv_pos_as_xyz
  1  'x, y, z'
loop_
 _atom_site_type_symbol
 _atom_site_label
 _atom_site_symmetry_multiplicity
 _atom_site_fract_x
 _atom_site_fract_y
 _atom_site_fract_z
 _atom_site_occupancy
  Al  Al0  1  0.10329388  0.10328712  0.40597664  1
  Al  Al1  1  0.22074222  0.20229466  0.15016282  1
  Al  Al2  1  0.77844103  0.09510333  0.89611058  1
  Al  Al3  1  0.44503351  0.09444270  0.40200233  1
  Al  Al4  1  0.56057932  0.19996873  0.14865476  1
  Al  Al5  1  0.11132825  0.09640411  0.88705621  1
  Al  Al6  1  0.21645494  0.20699591  0.65128517  1
  Al  Al7  1  0.78049218  0.09715677  0.40457288  1
  Al  Al8  1  0.88955332  0.20621866  0.14608459  1
  Al  Al9  1  0.44266330  0.08953766  0.90110727  1
  Al  Al10  1  0.56292249  0.19830114  0.65131995  1
  Al  Al11  1  0.11053313  0.42719661  0.39668482  1
  Al  Al12  1  0.22245127  0.53911922  0.11897400  1
  Al  Al13  1  0.77974229  0.42799072  0.88705675  1
  Al  Al14  1  0.89033274  0.53311821  0.65128524  1
  Al  Al15  1  0.44899670  0.43233062  0.33393242  1
  Al  Al16  1  0.54920585  0.54866034  0.07269924  1
  Al  Al17  1  0.10993613  0.42659880  0.90309727  1
  Al  Al18  1  0.22095166  0.53761373  0.61468072  1
  Al  Al19  1  0.78662513  0.41995706  0.40597671  1
  Al  Al20  1  0.88563000  0.53740843  0.15016325  1
  Al  Al21  1  0.44283861  0.43510493  0.83411498  1
  Al  Al22  1  0.55504054  0.53602265  0.59122296  1
  Al  Al23  1  0.11566569  0.76566119  0.33393221  1
  Al  Al24  1  0.23199570  0.86586902  0.07269957  1
  Al  Al25  1  0.77287439  0.75932697  0.90110742  1
  Al  Al26  1  0.88163824  0.87958518  0.65132000  1
  Al  Al27  1  0.44291361  0.75957753  0.33478343  1
  Al  Al28  1  0.55854903  0.87521546  0.15105342  1
  Al  Al29  1  0.11844330  0.75950095  0.83411483  1
  Al  Al30  1  0.21935946  0.87170244  0.59122303  1
  Al  Al31  1  0.77777787  0.76169870  0.40200240  1
  Al  Al32  1  0.88329966  0.87724779  0.14865549  1
  Al  Al33  1  0.55482222  0.87148532  0.65617449  1
  B  B34  1  0.88954970  0.20621286  0.65446582  1
  B  B35  1  0.44150211  0.75816469  0.82252819  1
  N  N36  1  0.22205980  0.20325462  0.34079231  1
  N  N37  1  0.10722483  0.09829964  0.08041031  1
  N  N38  1  0.88790379  0.20456680  0.81774696  1
  N  N39  1  0.78959094  0.10625430  0.59608730  1
  N  N40  1  0.56054582  0.20059882  0.34322261  1
  N  N41  1  0.44307964  0.09491517  0.09040522  1
  N  N42  1  0.22283867  0.20752652  0.83828027  1
  N  N43  1  0.08255857  0.11095956  0.60077008  1
  N  N44  1  0.88926880  0.20593279  0.33485440  1
  N  N45  1  0.77887225  0.09554022  0.08553206  1
  N  N46  1  0.55750022  0.19907403  0.84289793  1
  N  N47  1  0.44287503  0.09184484  0.59188742  1
  N  N48  1  0.22292163  0.53958615  0.36153037  1
  N  N49  1  0.10800615  0.42467167  0.09385924  1
  N  N50  1  0.89086316  0.53950255  0.83828038  1
  N  N51  1  0.79429739  0.39922147  0.60076999  1
  N  N52  1  0.55464857  0.54364516  0.40072577  1
  N  N53  1  0.45066336  0.43076215  0.13764607  1
  N  N54  1  0.22197256  0.53863492  0.87311855  1
  N  N55  1  0.10821929  0.42488291  0.58732076  1
  N  N56  1  0.88659042  0.53872514  0.34079259  1
  N  N57  1  0.78163601  0.42389011  0.08041076  1
  N  N58  1  0.54069714  0.56752321  0.87986154  1
  N  N59  1  0.44458772  0.42694758  0.64063073  1
  N  N60  1  0.22698172  0.87131118  0.40072574  1
  N  N61  1  0.11409347  0.76733093  0.13764601  1
  N  N62  1  0.88241233  0.87416280  0.84289818  1
  N  N63  1  0.77518099  0.75953882  0.59188748  1
  N  N64  1  0.55915999  0.87582528  0.34279762  1
  N  N65  1  0.44250079  0.75916514  0.14555952  1
  N  N66  1  0.25086066  0.85735967  0.87986171  1
  N  N67  1  0.11028437  0.76124997  0.64063071  1
  N  N68  1  0.88393371  0.87721112  0.34322290  1
  N  N69  1  0.77824855  0.75974631  0.09040546  1
  N  N70  1  0.54536489  0.86202850  0.84632639  1
  N  N71  1  0.43831090  0.75497388  0.66022327  1
