# generated using pymatgen
data_Al17BN18
_symmetry_space_group_name_H-M   'P 1'
_cell_length_a   9.31595930
_cell_length_b   9.32599742
_cell_length_c   10.11440239
_cell_angle_alpha   90.06428394
_cell_angle_beta   90.09023698
_cell_angle_gamma   60.14936885
_symmetry_Int_Tables_number   1
_chemical_formula_structural   Al17BN18
_chemical_formula_sum   'Al34 B2 N36'
_cell_volume   762.15774864
_cell_formula_units_Z   2
loop_
 _symmetry_equiv_pos_site_id
 _symmetry_equiv_pos_as_xyz
  1  'x, y, z'
loop_
 _atom_site_type_symbol
 _atom_site_label
 _atom_site_symmetry_multiplicity
 _atom_site_fract_x
 _atom_site_fract_y
 _atom_site_fract_z
 _atom_site_occupancy
  Al  Al0  1  0.10355944  0.10197883  0.39202596  1
  Al  Al1  1  0.22136073  0.20255519  0.13609992  1
  Al  Al2  1  0.77637072  0.09974196  0.87754274  1
  Al  Al3  1  0.44560845  0.09427482  0.38826501  1
  Al  Al4  1  0.56057352  0.20059176  0.13639661  1
  Al  Al5  1  0.11169135  0.09521894  0.87290416  1
  Al  Al6  1  0.21601227  0.20826237  0.63665273  1
  Al  Al7  1  0.77929145  0.09984970  0.39138621  1
  Al  Al8  1  0.88989577  0.20636485  0.13258514  1
  Al  Al9  1  0.44285213  0.08967616  0.88773802  1
  Al  Al10  1  0.56024043  0.20068564  0.63768143  1
  Al  Al11  1  0.10860525  0.42526434  0.38175936  1
  Al  Al12  1  0.22690815  0.54036775  0.07086125  1
  Al  Al13  1  0.77916944  0.42773661  0.87382275  1
  Al  Al14  1  0.89180658  0.53138064  0.63744287  1
  Al  Al15  1  0.44518069  0.43539977  0.31849104  1
  Al  Al16  1  0.54962948  0.54831213  0.05984955  1
  Al  Al17  1  0.10865054  0.42426243  0.88877728  1
  Al  Al18  1  0.22435663  0.54109584  0.56397427  1
  Al  Al19  1  0.78582298  0.42015398  0.39239502  1
  Al  Al20  1  0.88680128  0.53687688  0.13645888  1
  Al  Al21  1  0.43866300  0.43814437  0.81703861  1
  Al  Al22  1  0.55444683  0.53608565  0.57778903  1
  Al  Al23  1  0.11069781  0.76597383  0.31826767  1
  Al  Al24  1  0.23331595  0.86556118  0.05955072  1
  Al  Al25  1  0.77029954  0.75678040  0.88392245  1
  Al  Al26  1  0.88782221  0.87613268  0.60388687  1
  Al  Al27  1  0.44234046  0.75973497  0.32110595  1
  Al  Al28  1  0.55986122  0.87552132  0.13852271  1
  Al  Al29  1  0.11875328  0.75654857  0.81689581  1
  Al  Al30  1  0.21913802  0.87120193  0.57716411  1
  Al  Al31  1  0.77689634  0.76043967  0.38967909  1
  Al  Al32  1  0.89307236  0.87159869  0.08121069  1
  Al  Al33  1  0.55324956  0.87209931  0.64333207  1
  B  B34  1  0.88831217  0.20761874  0.64049960  1
  B  B35  1  0.43986055  0.75814305  0.80908855  1
  N  N36  1  0.22249690  0.20236455  0.32591927  1
  N  N37  1  0.10789318  0.09778676  0.06615387  1
  N  N38  1  0.88840623  0.20581756  0.80317892  1
  N  N39  1  0.78713131  0.11148452  0.58508930  1
  N  N40  1  0.55951373  0.20211800  0.32924794  1
  N  N41  1  0.44424354  0.09503968  0.07634783  1
  N  N42  1  0.22312945  0.20698672  0.82360990  1
  N  N43  1  0.08264196  0.11052219  0.58649801  1
  N  N44  1  0.88915646  0.20644301  0.32055571  1
  N  N45  1  0.77674193  0.10063373  0.06940532  1
  N  N46  1  0.55499600  0.20096943  0.82779149  1
  N  N47  1  0.44308739  0.09201857  0.57738626  1
  N  N48  1  0.22468520  0.54278120  0.37347769  1
  N  N49  1  0.10887933  0.42459625  0.08057660  1
  N  N50  1  0.89143850  0.53773207  0.82355406  1
  N  N51  1  0.79386045  0.39963577  0.58658444  1
  N  N52  1  0.55367901  0.54358139  0.38743914  1
  N  N53  1  0.44700749  0.43374583  0.12704354  1
  N  N54  1  0.22427069  0.54071689  0.88119755  1
  N  N55  1  0.10824076  0.42498447  0.57282925  1
  N  N56  1  0.88574110  0.53876524  0.32591431  1
  N  N57  1  0.78214907  0.42394303  0.06640419  1
  N  N58  1  0.53981019  0.56706189  0.86665044  1
  N  N59  1  0.43919381  0.43088589  0.62833081  1
  N  N60  1  0.22630574  0.86995952  0.38653177  1
  N  N61  1  0.11548775  0.76361190  0.12676536  1
  N  N62  1  0.88925911  0.87060459  0.85254690  1
  N  N63  1  0.77251270  0.75672589  0.58125694  1
  N  N64  1  0.55928545  0.87580592  0.32879780  1
  N  N65  1  0.44349170  0.75924147  0.13231046  1
  N  N66  1  0.25029418  0.85589812  0.86667041  1
  N  N67  1  0.11343596  0.75629768  0.63054632  1
  N  N68  1  0.89061629  0.87365990  0.36583336  1
  N  N69  1  0.77705762  0.75725305  0.07463032  1
  N  N70  1  0.54349768  0.86289519  0.83230901  1
  N  N71  1  0.43738408  0.75514041  0.64718504  1
