# generated using pymatgen
data_Al17BN18
_symmetry_space_group_name_H-M   'P 1'
_cell_length_a   9.31541399
_cell_length_b   9.32642013
_cell_length_c   10.11706347
_cell_angle_alpha   90.06659406
_cell_angle_beta   90.08813143
_cell_angle_gamma   60.14850352
_symmetry_Int_Tables_number   1
_chemical_formula_structural   Al17BN18
_chemical_formula_sum   'Al34 B2 N36'
_cell_volume   762.34161274
_cell_formula_units_Z   2
loop_
 _symmetry_equiv_pos_site_id
 _symmetry_equiv_pos_as_xyz
  1  'x, y, z'
loop_
 _atom_site_type_symbol
 _atom_site_label
 _atom_site_symmetry_multiplicity
 _atom_site_fract_x
 _atom_site_fract_y
 _atom_site_fract_z
 _atom_site_occupancy
  Al  Al0  1  0.10363123  0.10194581  0.39208092  1
  Al  Al1  1  0.22134768  0.20256240  0.13608526  1
  Al  Al2  1  0.77628189  0.10008010  0.87750873  1
  Al  Al3  1  0.44556459  0.09429616  0.38831097  1
  Al  Al4  1  0.56062694  0.20056568  0.13635398  1
  Al  Al5  1  0.11173172  0.09517337  0.87294300  1
  Al  Al6  1  0.21601779  0.20826045  0.63667921  1
  Al  Al7  1  0.77887698  0.10069772  0.39132683  1
  Al  Al8  1  0.88983807  0.20633899  0.13255589  1
  Al  Al9  1  0.44284149  0.08968163  0.88779616  1
  Al  Al10  1  0.56034209  0.20059025  0.63777594  1
  Al  Al11  1  0.10866156  0.42523273  0.38180635  1
  Al  Al12  1  0.22680134  0.54049395  0.07095108  1
  Al  Al13  1  0.77919973  0.42770704  0.87389950  1
  Al  Al14  1  0.89179769  0.53138699  0.63752627  1
  Al  Al15  1  0.44510148  0.43548700  0.31844605  1
  Al  Al16  1  0.54962902  0.54831746  0.05987045  1
  Al  Al17  1  0.10870430  0.42425668  0.88882691  1
  Al  Al18  1  0.22439037  0.54107595  0.56407301  1
  Al  Al19  1  0.78585194  0.42016499  0.39245426  1
  Al  Al20  1  0.88675987  0.53695291  0.13644166  1
  Al  Al21  1  0.43863433  0.43818448  0.81705588  1
  Al  Al22  1  0.55446476  0.53608611  0.57781429  1
  Al  Al23  1  0.11036269  0.76614591  0.31822419  1
  Al  Al24  1  0.23319438  0.86554278  0.05964912  1
  Al  Al25  1  0.77012681  0.75650661  0.88401742  1
  Al  Al26  1  0.88890681  0.87563305  0.59677897  1
  Al  Al27  1  0.44226888  0.75973252  0.32107121  1
  Al  Al28  1  0.55990949  0.87551189  0.13849967  1
  Al  Al29  1  0.11830127  0.75674661  0.81682727  1
  Al  Al30  1  0.21918032  0.87119508  0.57728800  1
  Al  Al31  1  0.77651379  0.76003004  0.38967765  1
  Al  Al32  1  0.89385409  0.87115311  0.07574707  1
  Al  Al33  1  0.55329214  0.87210147  0.64343755  1
  B  B34  1  0.88821941  0.20763703  0.64051584  1
  B  B35  1  0.43977758  0.75812632  0.80912892  1
  N  N36  1  0.22249985  0.20236577  0.32591335  1
  N  N37  1  0.10789104  0.09778298  0.06615185  1
  N  N38  1  0.88844720  0.20584158  0.80315863  1
  N  N39  1  0.78701351  0.11187259  0.58524149  1
  N  N40  1  0.55947632  0.20210398  0.32920084  1
  N  N41  1  0.44421824  0.09505307  0.07635643  1
  N  N42  1  0.22313786  0.20698318  0.82360180  1
  N  N43  1  0.08266488  0.11050461  0.58648455  1
  N  N44  1  0.88923415  0.20644832  0.32053900  1
  N  N45  1  0.77655442  0.10094779  0.06968851  1
  N  N46  1  0.55502061  0.20090136  0.82775690  1
  N  N47  1  0.44312644  0.09199847  0.57737579  1
  N  N48  1  0.22461566  0.54288256  0.37354650  1
  N  N49  1  0.10888573  0.42458862  0.08058481  1
  N  N50  1  0.89149133  0.53765930  0.82356395  1
  N  N51  1  0.79388004  0.39965853  0.58657551  1
  N  N52  1  0.55369130  0.54358086  0.38746055  1
  N  N53  1  0.44691949  0.43382125  0.12710276  1
  N  N54  1  0.22428168  0.54077107  0.88124439  1
  N  N55  1  0.10824881  0.42498201  0.57282900  1
  N  N56  1  0.88581190  0.53870437  0.32589598  1
  N  N57  1  0.78216122  0.42394626  0.06642542  1
  N  N58  1  0.53983304  0.56705408  0.86668076  1
  N  N59  1  0.43920163  0.43088098  0.62837733  1
  N  N60  1  0.22626086  0.86991903  0.38659490  1
  N  N61  1  0.11483073  0.76392591  0.12717094  1
  N  N62  1  0.89033426  0.87009790  0.85731492  1
  N  N63  1  0.77232128  0.75647524  0.58142922  1
  N  N64  1  0.55924643  0.87587483  0.32875137  1
  N  N65  1  0.44340185  0.75926281  0.13235788  1
  N  N66  1  0.25027124  0.85583473  0.86670627  1
  N  N67  1  0.11306373  0.75647925  0.63083599  1
  N  N68  1  0.89135879  0.87331356  0.37073318  1
  N  N69  1  0.77690852  0.75714205  0.07496984  1
  N  N70  1  0.54347200  0.86294804  0.83232265  1
  N  N71  1  0.43735794  0.75513503  0.64724489  1
