# generated using pymatgen
data_Al17BN18
_symmetry_space_group_name_H-M   'P 1'
_cell_length_a   9.30942806
_cell_length_b   9.30942872
_cell_length_c   10.12177879
_cell_angle_alpha   90.08672899
_cell_angle_beta   90.08604769
_cell_angle_gamma   60.20335168
_symmetry_Int_Tables_number   1
_chemical_formula_structural   Al17BN18
_chemical_formula_sum   'Al34 B2 N36'
_cell_volume   761.23564877
_cell_formula_units_Z   2
loop_
 _symmetry_equiv_pos_site_id
 _symmetry_equiv_pos_as_xyz
  1  'x, y, z'
loop_
 _atom_site_type_symbol
 _atom_site_label
 _atom_site_symmetry_multiplicity
 _atom_site_fract_x
 _atom_site_fract_y
 _atom_site_fract_z
 _atom_site_occupancy
  Al  Al0  1  0.10146360  0.10094304  0.38412179  1
  Al  Al1  1  0.21547491  0.20409670  0.12506688  1
  Al  Al2  1  0.77830527  0.09499381  0.80087858  1
  Al  Al3  1  0.44893790  0.09031199  0.30810286  1
  Al  Al4  1  0.55552669  0.20475825  0.05517050  1
  Al  Al5  1  0.11419751  0.09539463  0.86564989  1
  Al  Al6  1  0.21271191  0.21058509  0.62606424  1
  Al  Al7  1  0.77441269  0.09110141  0.30611909  1
  Al  Al8  1  0.89031710  0.20700589  0.12258455  1
  Al  Al9  1  0.45033565  0.08826243  0.80586299  1
  Al  Al10  1  0.56046084  0.20699098  0.55614109  1
  Al  Al11  1  0.10803178  0.42471974  0.37251526  1
  Al  Al12  1  0.22484539  0.54153158  0.06121739  1
  Al  Al13  1  0.77870860  0.43088581  0.86564903  1
  Al  Al14  1  0.89389665  0.52940157  0.62606428  1
  Al  Al15  1  0.44705941  0.42925172  0.30753917  1
  Al  Al16  1  0.54737466  0.54667292  0.05109125  1
  Al  Al17  1  0.10901885  0.42570739  0.87808868  1
  Al  Al18  1  0.22523450  0.54192189  0.55471638  1
  Al  Al19  1  0.78425516  0.41815186  0.38412216  1
  Al  Al20  1  0.88741015  0.53216136  0.12506694  1
  Al  Al21  1  0.44176931  0.43377686  0.80645695  1
  Al  Al22  1  0.55426732  0.53871975  0.57041741  1
  Al  Al23  1  0.11256350  0.76374699  0.30753909  1
  Al  Al24  1  0.22998543  0.86406108  0.05109139  1
  Al  Al25  1  0.77157362  0.76702623  0.80586317  1
  Al  Al26  1  0.89030207  0.87715016  0.55614072  1
  Al  Al27  1  0.44378616  0.76047390  0.31124032  1
  Al  Al28  1  0.55295889  0.86964599  0.05276722  1
  Al  Al29  1  0.11708870  0.75845650  0.80645658  1
  Al  Al30  1  0.22203176  0.87095502  0.57041643  1
  Al  Al31  1  0.77362422  0.76562541  0.30810294  1
  Al  Al32  1  0.88807071  0.87221339  0.05517089  1
  Al  Al33  1  0.55494709  0.87163434  0.56131818  1
  B  B34  1  0.89197099  0.20865878  0.63452476  1
  B  B35  1  0.44375951  0.76044796  0.80337750  1
  N  N36  1  0.21620236  0.20356372  0.31666881  1
  N  N37  1  0.10649472  0.09624475  0.05601342  1
  N  N38  1  0.89486972  0.21155705  0.79645377  1
  N  N39  1  0.78787001  0.10455962  0.61132913  1
  N  N40  1  0.55466590  0.20674419  0.36761196  1
  N  N41  1  0.44842927  0.09020452  0.11453564  1
  N  N42  1  0.22004705  0.21005431  0.81477394  1
  N  N43  1  0.08277765  0.11016529  0.57704700  1
  N  N44  1  0.89053116  0.20721844  0.31138575  1
  N  N45  1  0.77396539  0.09065375  0.11514391  1
  N  N46  1  0.55792005  0.20701737  0.86604897  1
  N  N47  1  0.44980047  0.09329728  0.61488106  1
  N  N48  1  0.22508042  0.54176914  0.36310653  1
  N  N49  1  0.10800691  0.42469263  0.06892536  1
  N  N50  1  0.89336648  0.53673766  0.81477424  1
  N  N51  1  0.79347702  0.39946629  0.57704774  1
  N  N52  1  0.55170088  0.54269605  0.37750886  1
  N  N53  1  0.44744667  0.42761696  0.11763415  1
  N  N54  1  0.22520700  0.54189561  0.87041258  1
  N  N55  1  0.10913897  0.42582610  0.56247463  1
  N  N56  1  0.88687649  0.53289019  0.31666920  1
  N  N57  1  0.77955784  0.42318192  0.05601301  1
  N  N58  1  0.53929255  0.56733781  0.85680657  1
  N  N59  1  0.44269874  0.42691890  0.61986930  1
  N  N60  1  0.22600747  0.86838857  0.37750848  1
  N  N61  1  0.11092850  0.76413415  0.11763424  1
  N  N62  1  0.89032850  0.87460980  0.86604924  1
  N  N63  1  0.77660885  0.76648925  0.61488104  1
  N  N64  1  0.55452960  0.87121842  0.37210764  1
  N  N65  1  0.44405886  0.76074754  0.12288142  1
  N  N66  1  0.25065023  0.85597868  0.85680682  1
  N  N67  1  0.11022946  0.75938792  0.61986893  1
  N  N68  1  0.89005462  0.87135545  0.36761158  1
  N  N69  1  0.77351697  0.76511551  0.11453558  1
  N  N70  1  0.54385515  0.86054478  0.86158309  1
  N  N71  1  0.44545433  0.76214303  0.64008404  1
