# generated using pymatgen
data_Al17BN18
_symmetry_space_group_name_H-M   'P 1'
_cell_length_a   9.30435477
_cell_length_b   9.30435503
_cell_length_c   10.14016232
_cell_angle_alpha   90.04878312
_cell_angle_beta   90.04878300
_cell_angle_gamma   60.17779909
_symmetry_Int_Tables_number   1
_chemical_formula_structural   Al17BN18
_chemical_formula_sum   'Al34 B2 N36'
_cell_volume   761.59339639
_cell_formula_units_Z   2
loop_
 _symmetry_equiv_pos_site_id
 _symmetry_equiv_pos_as_xyz
  1  'x, y, z'
loop_
 _atom_site_type_symbol
 _atom_site_label
 _atom_site_symmetry_multiplicity
 _atom_site_fract_x
 _atom_site_fract_y
 _atom_site_fract_z
 _atom_site_occupancy
  Al  Al0  1  0.10138769  0.10099601  0.38824624  1
  Al  Al1  1  0.21527258  0.20426338  0.12939458  1
  Al  Al2  1  0.77827495  0.09496982  0.80473187  1
  Al  Al3  1  0.44881914  0.09035417  0.31210091  1
  Al  Al4  1  0.55546849  0.20476279  0.05923652  1
  Al  Al5  1  0.11410422  0.09551290  0.86990026  1
  Al  Al6  1  0.21259978  0.21066197  0.63054129  1
  Al  Al7  1  0.77426881  0.09096370  0.31009116  1
  Al  Al8  1  0.89026090  0.20695483  0.12680299  1
  Al  Al9  1  0.45033082  0.08831001  0.80992188  1
  Al  Al10  1  0.56041670  0.20700097  0.56018177  1
  Al  Al11  1  0.10793912  0.42463240  0.37746513  1
  Al  Al12  1  0.22493409  0.54162628  0.06525618  1
  Al  Al13  1  0.77882081  0.43079823  0.86989974  1
  Al  Al14  1  0.89396723  0.52929670  0.63054123  1
  Al  Al15  1  0.44696818  0.42924449  0.31168857  1
  Al  Al16  1  0.54740008  0.54667219  0.05516669  1
  Al  Al17  1  0.10897661  0.42567004  0.88278251  1
  Al  Al18  1  0.22535132  0.54204545  0.55889336  1
  Al  Al19  1  0.78430166  0.41808178  0.38824646  1
  Al  Al20  1  0.88757087  0.53196601  0.12939456  1
  Al  Al21  1  0.44178567  0.43380595  0.81056731  1
  Al  Al22  1  0.55429790  0.53878497  0.57442363  1
  Al  Al23  1  0.11255001  0.76366226  0.31168866  1
  Al  Al24  1  0.22997898  0.86409155  0.05516673  1
  Al  Al25  1  0.77161556  0.76702666  0.80992229  1
  Al  Al26  1  0.89030534  0.87711309  0.56018151  1
  Al  Al27  1  0.44377720  0.76047173  0.31532373  1
  Al  Al28  1  0.55299200  0.86968582  0.05688407  1
  Al  Al29  1  0.11711146  0.75847922  0.81056702  1
  Al  Al30  1  0.22209095  0.87099125  0.57442334  1
  Al  Al31  1  0.77366073  0.76551185  0.31210103  1
  Al  Al32  1  0.88806906  0.87216187  0.05923687  1
  Al  Al33  1  0.55496606  0.87166058  0.56542875  1
  B  B34  1  0.89201804  0.20871271  0.63844639  1
  B  B35  1  0.44374817  0.76044193  0.80773069  1
  N  N36  1  0.21591203  0.20380041  0.32057759  1
  N  N37  1  0.10643787  0.09643395  0.05995425  1
  N  N38  1  0.89488185  0.21157588  0.80023578  1
  N  N39  1  0.78786098  0.10455681  0.61549494  1
  N  N40  1  0.55452282  0.20668036  0.37192633  1
  N  N41  1  0.44837409  0.09024114  0.11887092  1
  N  N42  1  0.21987458  0.21024104  0.81879740  1
  N  N43  1  0.08282035  0.11030381  0.58091301  1
  N  N44  1  0.89043422  0.20712858  0.31532619  1
  N  N45  1  0.77388015  0.09057387  0.11946431  1
  N  N46  1  0.55790889  0.20699132  0.87036383  1
  N  N47  1  0.44981429  0.09333103  0.61925166  1
  N  N48  1  0.22503533  0.54172936  0.36763156  1
  N  N49  1  0.10799667  0.42468930  0.07267674  1
  N  N50  1  0.89354737  0.53657024  0.81879738  1
  N  N51  1  0.79360997  0.39951543  0.58091337  1
  N  N52  1  0.55160192  0.54264939  0.38178829  1
  N  N53  1  0.44748658  0.42761238  0.12202173  1
  N  N54  1  0.22524740  0.54194102  0.87482520  1
  N  N55  1  0.10915180  0.42584644  0.56661100  1
  N  N56  1  0.88710718  0.53260501  0.32057754  1
  N  N57  1  0.77974203  0.42313122  0.05995375  1
  N  N58  1  0.53929701  0.56731645  0.86113962  1
  N  N59  1  0.44279341  0.42692966  0.62424578  1
  N  N60  1  0.22595487  0.86829625  0.38178808  1
  N  N61  1  0.11091873  0.76417897  0.12202180  1
  N  N62  1  0.89029713  0.87460384  0.87036413  1
  N  N63  1  0.77663591  0.76651067  0.61925206  1
  N  N64  1  0.55449604  0.87118969  0.37641174  1
  N  N65  1  0.44407165  0.76076497  0.12715018  1
  N  N66  1  0.25062278  0.85598961  0.86113963  1
  N  N67  1  0.11023448  0.75948793  0.62424546  1
  N  N68  1  0.88998557  0.87121743  0.37192611  1
  N  N69  1  0.77354748  0.76506743  0.11887096  1
  N  N70  1  0.54386732  0.86056183  0.86591983  1
  N  N71  1  0.44548090  0.76217504  0.64441970  1
