# generated using pymatgen
data_Al17BN18
_symmetry_space_group_name_H-M   'P 1'
_cell_length_a   9.29963655
_cell_length_b   9.29963669
_cell_length_c   9.93925931
_cell_angle_alpha   89.99397340
_cell_angle_beta   89.99396417
_cell_angle_gamma   60.00212026
_symmetry_Int_Tables_number   1
_chemical_formula_structural   Al17BN18
_chemical_formula_sum   'Al34 B2 N36'
_cell_volume   744.43346135
_cell_formula_units_Z   2
loop_
 _symmetry_equiv_pos_site_id
 _symmetry_equiv_pos_as_xyz
  1  'x, y, z'
loop_
 _atom_site_type_symbol
 _atom_site_label
 _atom_site_symmetry_multiplicity
 _atom_site_fract_x
 _atom_site_fract_y
 _atom_site_fract_z
 _atom_site_occupancy
  Al  Al0  1  0.10661739  0.09534188  0.40985637  1
  Al  Al1  1  0.22118581  0.20464555  0.15613501  1
  Al  Al2  1  0.77898129  0.09564581  0.90032189  1
  Al  Al3  1  0.44526127  0.09241814  0.40577510  1
  Al  Al4  1  0.55693800  0.20495205  0.15562639  1
  Al  Al5  1  0.11400554  0.09194797  0.89958255  1
  Al  Al6  1  0.21711437  0.20693581  0.65586785  1
  Al  Al7  1  0.78056957  0.09723457  0.41022087  1
  Al  Al8  1  0.88899983  0.20566527  0.15404246  1
  Al  Al9  1  0.44260508  0.09134572  0.90589422  1
  Al  Al10  1  0.55921757  0.20715331  0.65609146  1
  Al  Al11  1  0.11092953  0.42759448  0.40576976  1
  Al  Al12  1  0.22220899  0.53887421  0.15637697  1
  Al  Al13  1  0.77528236  0.43067082  0.89958249  1
  Al  Al14  1  0.89027001  0.53377998  0.65586785  1
  Al  Al15  1  0.44543216  0.42864487  0.40546155  1
  Al  Al16  1  0.55597262  0.54045062  0.14890483  1
  Al  Al17  1  0.11111889  0.42778349  0.90672033  1
  Al  Al18  1  0.22230714  0.53897323  0.65599894  1
  Al  Al19  1  0.77867637  0.42328336  0.40985628  1
  Al  Al20  1  0.88798048  0.53785140  0.15613508  1
  Al  Al21  1  0.44293869  0.43293264  0.90633288  1
  Al  Al22  1  0.55591265  0.53966801  0.66002264  1
  Al  Al23  1  0.11197931  0.76209788  0.40546163  1
  Al  Al24  1  0.22378634  0.87263684  0.14890462  1
  Al  Al25  1  0.77468025  0.75927007  0.90589408  1
  Al  Al26  1  0.89048679  0.87588416  0.65609137  1
  Al  Al27  1  0.44448137  0.76114750  0.40393098  1
  Al  Al28  1  0.55425138  0.87091601  0.14926262  1
  Al  Al29  1  0.11626682  0.75960418  0.90633288  1
  Al  Al30  1  0.22300330  0.87257738  0.66002289  1
  Al  Al31  1  0.77575183  0.76192757  0.40577519  1
  Al  Al32  1  0.88828692  0.87360322  0.15562642  1
  Al  Al33  1  0.55277551  0.86944099  0.66073946  1
  B  B34  1  0.88831676  0.20498192  0.66037839  1
  B  B35  1  0.44439095  0.76105601  0.90910369  1
  N  N36  1  0.22130327  0.20382975  0.34888912  1
  N  N37  1  0.10923866  0.09578332  0.09126585  1
  N  N38  1  0.88902383  0.20568894  0.82585996  1
  N  N39  1  0.79034988  0.10701594  0.60422057  1
  N  N40  1  0.55758478  0.20439312  0.34882568  1
  N  N41  1  0.44373441  0.09533659  0.09677932  1
  N  N42  1  0.22199729  0.20669618  0.84574248  1
  N  N43  1  0.08718800  0.10458184  0.60553680  1
  N  N44  1  0.88910892  0.20577466  0.34342229  1
  N  N45  1  0.77857801  0.09524307  0.09255721  1
  N  N46  1  0.55444335  0.20636455  0.84681553  1
  N  N47  1  0.44542251  0.09263016  0.59870514  1
  N  N48  1  0.22236962  0.53903517  0.34732887  1
  N  N49  1  0.11086711  0.42753210  0.09818001  1
  N  N50  1  0.89003119  0.53866213  0.84574253  1
  N  N51  1  0.78791675  0.40385317  0.60553672  1
  N  N52  1  0.55702481  0.53945031  0.34305892  1
  N  N53  1  0.44432674  0.42755535  0.09691882  1
  N  N54  1  0.22196681  0.53863216  0.84673778  1
  N  N55  1  0.11139973  0.42806539  0.59602570  1
  N  N56  1  0.88716441  0.53796909  0.34888926  1
  N  N57  1  0.77911865  0.42590374  0.09126575  1
  N  N58  1  0.54275701  0.56401716  0.85313495  1
  N  N59  1  0.44511062  0.42925919  0.59751317  1
  N  N60  1  0.22278461  0.87369033  0.34305879  1
  N  N61  1  0.11089020  0.76099178  0.09691880  1
  N  N62  1  0.88969907  0.87110835  0.84681536  1
  N  N63  1  0.77596449  0.76208819  0.59870516  1
  N  N64  1  0.55464876  0.87131472  0.34173956  1
  N  N65  1  0.44425262  0.76091697  0.07526003  1
  N  N66  1  0.24735191  0.85942224  0.85313519  1
  N  N67  1  0.11259317  0.76177663  0.59751330  1
  N  N68  1  0.88772773  0.87425010  0.34882566  1
  N  N69  1  0.77867169  0.76039958  0.09677916  1
  N  N70  1  0.54301956  0.85968484  0.85439734  1
  N  N71  1  0.44410849  0.76077347  0.59330054  1
