# generated using pymatgen
data_Al17BN18
_symmetry_space_group_name_H-M   'P 1'
_cell_length_a   9.29641366
_cell_length_b   9.29718944
_cell_length_c   9.95331496
_cell_angle_alpha   90.01724778
_cell_angle_beta   89.93132540
_cell_angle_gamma   60.00662220
_symmetry_Int_Tables_number   1
_chemical_formula_structural   Al17BN18
_chemical_formula_sum   'Al34 B2 N36'
_cell_volume   745.06459933
_cell_formula_units_Z   2
loop_
 _symmetry_equiv_pos_site_id
 _symmetry_equiv_pos_as_xyz
  1  'x, y, z'
loop_
 _atom_site_type_symbol
 _atom_site_label
 _atom_site_symmetry_multiplicity
 _atom_site_fract_x
 _atom_site_fract_y
 _atom_site_fract_z
 _atom_site_occupancy
  Al  Al0  1  0.10625354  0.09616311  0.40183617  1
  Al  Al1  1  0.22138802  0.20433220  0.14774733  1
  Al  Al2  1  0.77886517  0.09574393  0.89263014  1
  Al  Al3  1  0.44508098  0.09319819  0.39809586  1
  Al  Al4  1  0.55690777  0.20496817  0.14738881  1
  Al  Al5  1  0.11434619  0.09130316  0.89115344  1
  Al  Al6  1  0.21690718  0.20723370  0.64811048  1
  Al  Al7  1  0.78061769  0.09726622  0.40191532  1
  Al  Al8  1  0.88914527  0.20568795  0.14565606  1
  Al  Al9  1  0.44252334  0.09073195  0.89780221  1
  Al  Al10  1  0.55930132  0.20706024  0.64858200  1
  Al  Al11  1  0.11094774  0.42769659  0.39749485  1
  Al  Al12  1  0.22238566  0.53904120  0.14809636  1
  Al  Al13  1  0.77455973  0.43117068  0.89146730  1
  Al  Al14  1  0.89037082  0.53376453  0.64821259  1
  Al  Al15  1  0.44523792  0.42821697  0.39785354  1
  Al  Al16  1  0.55594420  0.54046757  0.14243551  1
  Al  Al17  1  0.11089167  0.42780828  0.89911707  1
  Al  Al18  1  0.22202839  0.53882193  0.64832474  1
  Al  Al19  1  0.77934992  0.42293953  0.40211761  1
  Al  Al20  1  0.88763937  0.53807710  0.14798410  1
  Al  Al21  1  0.44285894  0.43337837  0.89827154  1
  Al  Al22  1  0.55589817  0.53950587  0.65017144  1
  Al  Al23  1  0.11157662  0.76192594  0.39761874  1
  Al  Al24  1  0.22402590  0.87252833  0.14227328  1
  Al  Al25  1  0.77392118  0.75940776  0.89783882  1
  Al  Al26  1  0.89034348  0.87613213  0.64854689  1
  Al  Al27  1  0.44471338  0.76111351  0.39482824  1
  Al  Al28  1  0.55428037  0.87087699  0.14283144  1
  Al  Al29  1  0.11666366  0.75973825  0.89802329  1
  Al  Al30  1  0.22283174  0.87266373  0.64956572  1
  Al  Al31  1  0.77653630  0.76185266  0.39818001  1
  Al  Al32  1  0.88843800  0.87353715  0.14722082  1
  Al  Al33  1  0.55274367  0.86950816  0.65082640  1
  B  B34  1  0.88828329  0.20513091  0.65225903  1
  B  B35  1  0.44426640  0.76098920  0.89647771  1
  N  N36  1  0.22146346  0.20391668  0.34041454  1
  N  N37  1  0.10958040  0.09516443  0.08280619  1
  N  N38  1  0.88887610  0.20575689  0.81771350  1
  N  N39  1  0.79033850  0.10703185  0.59595745  1
  N  N40  1  0.55768370  0.20442721  0.34044674  1
  N  N41  1  0.44416331  0.09478899  0.08851848  1
  N  N42  1  0.22187944  0.20671792  0.83772158  1
  N  N43  1  0.08690666  0.10514694  0.59713624  1
  N  N44  1  0.88921691  0.20584156  0.33495258  1
  N  N45  1  0.77868033  0.09522902  0.08449163  1
  N  N46  1  0.55435843  0.20628701  0.83900631  1
  N  N47  1  0.44513211  0.09320719  0.59062497  1
  N  N48  1  0.22251704  0.53904729  0.33894447  1
  N  N49  1  0.11087819  0.42751090  0.09021805  1
  N  N50  1  0.88991819  0.53867324  0.83781236  1
  N  N51  1  0.78833221  0.40364193  0.59739715  1
  N  N52  1  0.55762450  0.53843250  0.33628162  1
  N  N53  1  0.44470034  0.42759157  0.08868092  1
  N  N54  1  0.22184968  0.53854082  0.83879108  1
  N  N55  1  0.11130907  0.42802789  0.58772258  1
  N  N56  1  0.88720092  0.53808119  0.34065636  1
  N  N57  1  0.77873507  0.42603161  0.08303167  1
  N  N58  1  0.54219476  0.56483336  0.84322913  1
  N  N59  1  0.44477763  0.42881786  0.58950945  1
  N  N60  1  0.22208373  0.87415391  0.33623845  1
  N  N61  1  0.11122543  0.76119603  0.08851150  1
  N  N62  1  0.88958462  0.87113778  0.83896902  1
  N  N63  1  0.77658745  0.76188099  0.59070701  1
  N  N64  1  0.55533886  0.87184147  0.33500300  1
  N  N65  1  0.44440067  0.76080316  0.07015379  1
  N  N66  1  0.24811813  0.85894454  0.84277196  1
  N  N67  1  0.11218934  0.76137112  0.58927350  1
  N  N68  1  0.88789055  0.87427202  0.34030310  1
  N  N69  1  0.77833075  0.76065170  0.08855345  1
  N  N70  1  0.54246745  0.85920096  0.84445681  1
  N  N71  1  0.44432636  0.76056227  0.58364430  1
