# generated using pymatgen
data_Al17BN18
_symmetry_space_group_name_H-M   'P 1'
_cell_length_a   9.32706697
_cell_length_b   9.32721437
_cell_length_c   10.04120198
_cell_angle_alpha   89.81244443
_cell_angle_beta   89.74743891
_cell_angle_gamma   60.09401467
_symmetry_Int_Tables_number   1
_chemical_formula_structural   Al17BN18
_chemical_formula_sum   'Al34 B2 N36'
_cell_volume   757.21548320
_cell_formula_units_Z   2
loop_
 _symmetry_equiv_pos_site_id
 _symmetry_equiv_pos_as_xyz
  1  'x, y, z'
loop_
 _atom_site_type_symbol
 _atom_site_label
 _atom_site_symmetry_multiplicity
 _atom_site_fract_x
 _atom_site_fract_y
 _atom_site_fract_z
 _atom_site_occupancy
  Al  Al0  1  0.10203504  0.10470512  0.40149161  1
  Al  Al1  1  0.22167621  0.20436515  0.14848361  1
  Al  Al2  1  0.77857290  0.09599341  0.89389745  1
  Al  Al3  1  0.44525268  0.09376856  0.40281476  1
  Al  Al4  1  0.55715994  0.20431038  0.14845766  1
  Al  Al5  1  0.11269705  0.09577675  0.88674036  1
  Al  Al6  1  0.21702143  0.20776289  0.64911034  1
  Al  Al7  1  0.78036934  0.09695477  0.40236292  1
  Al  Al8  1  0.88994670  0.20434355  0.14580406  1
  Al  Al9  1  0.44206939  0.09011942  0.89894529  1
  Al  Al10  1  0.55971252  0.20622941  0.65080309  1
  Al  Al11  1  0.11128283  0.42813086  0.39851988  1
  Al  Al12  1  0.22197334  0.53962326  0.14841399  1
  Al  Al13  1  0.77634991  0.43145630  0.88922246  1
  Al  Al14  1  0.89066144  0.53377068  0.64934882  1
  Al  Al15  1  0.44240190  0.42337911  0.39748430  1
  Al  Al16  1  0.55487644  0.54392046  0.10295856  1
  Al  Al17  1  0.11089595  0.42730262  0.90041407  1
  Al  Al18  1  0.22126933  0.53744722  0.64975451  1
  Al  Al19  1  0.78760803  0.41905112  0.40062171  1
  Al  Al20  1  0.88856819  0.53839284  0.14885846  1
  Al  Al21  1  0.44086890  0.43299101  0.89659631  1
  Al  Al22  1  0.55763936  0.53724003  0.58768521  1
  Al  Al23  1  0.10650498  0.75933565  0.39842862  1
  Al  Al24  1  0.23209853  0.86911008  0.08568749  1
  Al  Al25  1  0.77315201  0.75865265  0.89923408  1
  Al  Al26  1  0.88883268  0.87671183  0.65064800  1
  Al  Al27  1  0.44207227  0.76142463  0.35032531  1
  Al  Al28  1  0.55884340  0.87536790  0.15413787  1
  Al  Al29  1  0.11444085  0.75633775  0.89452243  1
  Al  Al30  1  0.22059335  0.87426031  0.58539620  1
  Al  Al31  1  0.77700847  0.76202516  0.40273524  1
  Al  Al32  1  0.88905107  0.87351836  0.14813355  1
  Al  Al33  1  0.55263506  0.86927692  0.65000852  1
  B  B34  1  0.88942655  0.20689176  0.65235473  1
  B  B35  1  0.44514986  0.75906416  0.85844429  1
  N  N36  1  0.22237972  0.20530012  0.34006885  1
  N  N37  1  0.10771484  0.09970073  0.08085852  1
  N  N38  1  0.88774712  0.20643231  0.81793075  1
  N  N39  1  0.78999585  0.10696142  0.59584755  1
  N  N40  1  0.55789086  0.20300979  0.33972125  1
  N  N41  1  0.44438894  0.09369795  0.08853193  1
  N  N42  1  0.22288295  0.20777074  0.83738185  1
  N  N43  1  0.08290287  0.11194984  0.59940419  1
  N  N44  1  0.88908316  0.20527305  0.33322912  1
  N  N45  1  0.77865628  0.09510304  0.08483968  1
  N  N46  1  0.55486586  0.20571265  0.84028324  1
  N  N47  1  0.44456945  0.09393634  0.59344213  1
  N  N48  1  0.22195131  0.53926058  0.33730009  1
  N  N49  1  0.11134685  0.42751232  0.09011233  1
  N  N50  1  0.89094043  0.53908870  0.83799446  1
  N  N51  1  0.79438433  0.40034523  0.59783085  1
  N  N52  1  0.56116092  0.53320266  0.37875172  1
  N  N53  1  0.44341479  0.42540159  0.08883594  1
  N  N54  1  0.22178496  0.53705529  0.83834180  1
  N  N55  1  0.11082454  0.42765548  0.58755114  1
  N  N56  1  0.88875257  0.53917726  0.34016227  1
  N  N57  1  0.78342864  0.42381531  0.08317140  1
  N  N58  1  0.53933116  0.57265674  0.87774806  1
  N  N59  1  0.44032021  0.42375717  0.59033519  1
  N  N60  1  0.21644995  0.87816644  0.38584233  1
  N  N61  1  0.10932046  0.75986744  0.08675207  1
  N  N62  1  0.88764920  0.87217865  0.83992894  1
  N  N63  1  0.77714180  0.76119477  0.59334061  1
  N  N64  1  0.56042778  0.87715276  0.34344279  1
  N  N65  1  0.44207860  0.76099568  0.15176006  1
  N  N66  1  0.25684070  0.85536343  0.88084518  1
  N  N67  1  0.10682368  0.75667671  0.59207515  1
  N  N68  1  0.88674623  0.87439420  0.33966422  1
  N  N69  1  0.77752771  0.76090083  0.08880779  1
  N  N70  1  0.54177338  0.85808647  0.84544177  1
  N  N71  1  0.44471728  0.76097818  0.60318464  1
