# generated using pymatgen
data_Al17BN18
_symmetry_space_group_name_H-M   'P 1'
_cell_length_a   9.33057304
_cell_length_b   9.32437412
_cell_length_c   10.04682872
_cell_angle_alpha   90.02206335
_cell_angle_beta   90.00964174
_cell_angle_gamma   60.16711258
_symmetry_Int_Tables_number   1
_chemical_formula_structural   Al17BN18
_chemical_formula_sum   'Al34 B2 N36'
_cell_volume   758.25707089
_cell_formula_units_Z   2
loop_
 _symmetry_equiv_pos_site_id
 _symmetry_equiv_pos_as_xyz
  1  'x, y, z'
loop_
 _atom_site_type_symbol
 _atom_site_label
 _atom_site_symmetry_multiplicity
 _atom_site_fract_x
 _atom_site_fract_y
 _atom_site_fract_z
 _atom_site_occupancy
  Al  Al0  1  0.10372548  0.10366160  0.40542492  1
  Al  Al1  1  0.22120355  0.20354104  0.14837392  1
  Al  Al2  1  0.77764714  0.09587216  0.89536989  1
  Al  Al3  1  0.44513613  0.09397557  0.40064658  1
  Al  Al4  1  0.55671874  0.20824095  0.14872043  1
  Al  Al5  1  0.11156743  0.09665238  0.88600042  1
  Al  Al6  1  0.21670334  0.20735653  0.64980616  1
  Al  Al7  1  0.77972776  0.09886478  0.40315653  1
  Al  Al8  1  0.88996495  0.20596740  0.14538226  1
  Al  Al9  1  0.44282311  0.08912366  0.90026997  1
  Al  Al10  1  0.55968294  0.20386908  0.65149311  1
  Al  Al11  1  0.11156821  0.42762951  0.39760840  1
  Al  Al12  1  0.22477399  0.53857594  0.14684303  1
  Al  Al13  1  0.77954690  0.42829600  0.88486672  1
  Al  Al14  1  0.89170018  0.53336838  0.64995978  1
  Al  Al15  1  0.44392933  0.42556623  0.40257271  1
  Al  Al16  1  0.55239476  0.55142978  0.07387615  1
  Al  Al17  1  0.11039990  0.42713366  0.90247750  1
  Al  Al18  1  0.22204469  0.53247198  0.64956475  1
  Al  Al19  1  0.78651350  0.42095004  0.40517924  1
  Al  Al20  1  0.88816894  0.53792290  0.14858105  1
  Al  Al21  1  0.44051641  0.42850966  0.89377615  1
  Al  Al22  1  0.55746469  0.53655827  0.59705637  1
  Al  Al23  1  0.11190228  0.76267775  0.37275772  1
  Al  Al24  1  0.23159589  0.86601617  0.07246965  1
  Al  Al25  1  0.77240740  0.75952715  0.90077676  1
  Al  Al26  1  0.88320385  0.87887998  0.64935094  1
  Al  Al27  1  0.44324372  0.75831821  0.33356018  1
  Al  Al28  1  0.55890563  0.87679679  0.15018911  1
  Al  Al29  1  0.11495825  0.76053462  0.85538880  1
  Al  Al30  1  0.21969607  0.87261536  0.59441775  1
  Al  Al31  1  0.77662376  0.76152285  0.40106996  1
  Al  Al32  1  0.88865818  0.87505540  0.14709150  1
  Al  Al33  1  0.55514887  0.87211095  0.65535035  1
  B  B34  1  0.88973128  0.20612847  0.65435520  1
  B  B35  1  0.44173614  0.75705919  0.82079720  1
  N  N36  1  0.22209712  0.20415799  0.34004967  1
  N  N37  1  0.10798488  0.09875328  0.07979410  1
  N  N38  1  0.88821056  0.20400599  0.81773657  1
  N  N39  1  0.78846913  0.10736264  0.59554715  1
  N  N40  1  0.55752618  0.20623986  0.34057286  1
  N  N41  1  0.44392759  0.09623327  0.08999739  1
  N  N42  1  0.22299306  0.20766392  0.83763932  1
  N  N43  1  0.08254411  0.11143409  0.60088562  1
  N  N44  1  0.88987438  0.20626820  0.33455164  1
  N  N45  1  0.77767736  0.09668185  0.08576486  1
  N  N46  1  0.55519000  0.20308493  0.83987568  1
  N  N47  1  0.44340294  0.09185312  0.59109642  1
  N  N48  1  0.22571174  0.53623472  0.33924708  1
  N  N49  1  0.11145207  0.42717176  0.09165397  1
  N  N50  1  0.89146810  0.53974155  0.83778818  1
  N  N51  1  0.79532510  0.39902371  0.60180992  1
  N  N52  1  0.55692725  0.54527429  0.40003322  1
  N  N53  1  0.44474096  0.42694414  0.08622800  1
  N  N54  1  0.22221817  0.53273493  0.83893111  1
  N  N55  1  0.11016757  0.42631665  0.58622580  1
  N  N56  1  0.88851377  0.53862697  0.34013983  1
  N  N57  1  0.78311389  0.42455915  0.08013981  1
  N  N58  1  0.54109866  0.56732125  0.87582853  1
  N  N59  1  0.44079516  0.42143240  0.59406813  1
  N  N60  1  0.22872241  0.87232295  0.40047996  1
  N  N61  1  0.11164419  0.76251529  0.10747795  1
  N  N62  1  0.88208915  0.87442140  0.84005716  1
  N  N63  1  0.77472381  0.75966386  0.59089110  1
  N  N64  1  0.55905584  0.87615233  0.34165648  1
  N  N65  1  0.44205900  0.76050525  0.14468881  1
  N  N66  1  0.25147051  0.85751519  0.87647362  1
  N  N67  1  0.10789471  0.75860223  0.61840169  1
  N  N68  1  0.88535952  0.87660149  0.34215884  1
  N  N69  1  0.77829677  0.76069682  0.09014755  1
  N  N70  1  0.54590307  0.86236496  0.84583936  1
  N  N71  1  0.43855141  0.75548125  0.66022227  1
