# generated using pymatgen
data_Al17BN18
_symmetry_space_group_name_H-M   'P 1'
_cell_length_a   9.32897323
_cell_length_b   9.33396333
_cell_length_c   10.06237372
_cell_angle_alpha   90.12404071
_cell_angle_beta   90.17728167
_cell_angle_gamma   60.28675024
_symmetry_Int_Tables_number   1
_chemical_formula_structural   Al17BN18
_chemical_formula_sum   'Al34 B2 N36'
_cell_volume   760.98565144
_cell_formula_units_Z   2
loop_
 _symmetry_equiv_pos_site_id
 _symmetry_equiv_pos_as_xyz
  1  'x, y, z'
loop_
 _atom_site_type_symbol
 _atom_site_label
 _atom_site_symmetry_multiplicity
 _atom_site_fract_x
 _atom_site_fract_y
 _atom_site_fract_z
 _atom_site_occupancy
  Al  Al0  1  0.10144362  0.10047960  0.38538678  1
  Al  Al1  1  0.22116154  0.20218326  0.09332107  1
  Al  Al2  1  0.77799708  0.09535412  0.80197265  1
  Al  Al3  1  0.44526467  0.09172412  0.30977818  1
  Al  Al4  1  0.55640957  0.20534606  0.05612029  1
  Al  Al5  1  0.11326526  0.09384230  0.86280112  1
  Al  Al6  1  0.21844415  0.20449234  0.60882165  1
  Al  Al7  1  0.77448865  0.09144343  0.30729185  1
  Al  Al8  1  0.89087085  0.20667953  0.12401169  1
  Al  Al9  1  0.45063972  0.08756431  0.80727317  1
  Al  Al10  1  0.56077526  0.20737814  0.55645568  1
  Al  Al11  1  0.11457068  0.42573500  0.31222711  1
  Al  Al12  1  0.22160413  0.53896995  0.05876042  1
  Al  Al13  1  0.77894764  0.43096044  0.86746612  1
  Al  Al14  1  0.88617743  0.53374906  0.62400079  1
  Al  Al15  1  0.44680463  0.42911176  0.30845607  1
  Al  Al16  1  0.54620949  0.54651895  0.05225090  1
  Al  Al17  1  0.11587260  0.43119781  0.80976006  1
  Al  Al18  1  0.22252619  0.53932472  0.55436424  1
  Al  Al19  1  0.78489741  0.41812780  0.38458951  1
  Al  Al20  1  0.88153738  0.53599874  0.12331748  1
  Al  Al21  1  0.44307391  0.43356808  0.80703428  1
  Al  Al22  1  0.55350886  0.53837493  0.57027448  1
  Al  Al23  1  0.11242969  0.76332115  0.30841802  1
  Al  Al24  1  0.22976930  0.86257604  0.05145583  1
  Al  Al25  1  0.77018647  0.76824861  0.80762413  1
  Al  Al26  1  0.89061549  0.87731251  0.55682106  1
  Al  Al27  1  0.44337300  0.76073862  0.31194899  1
  Al  Al28  1  0.55286394  0.86883792  0.05335640  1
  Al  Al29  1  0.11676182  0.75903865  0.80680874  1
  Al  Al30  1  0.22207596  0.86919812  0.57123642  1
  Al  Al31  1  0.77254726  0.76669975  0.31028412  1
  Al  Al32  1  0.88828792  0.87245199  0.05597707  1
  Al  Al33  1  0.55471217  0.87161212  0.56149198  1
  B  B34  1  0.89144158  0.20818674  0.63613548  1
  B  B35  1  0.44412493  0.75993742  0.80341560  1
  N  N36  1  0.22162215  0.20185489  0.34314029  1
  N  N37  1  0.10483724  0.09397286  0.05597084  1
  N  N38  1  0.89356654  0.21260743  0.79769146  1
  N  N39  1  0.78781755  0.10456966  0.61155905  1
  N  N40  1  0.55504368  0.20649190  0.36703385  1
  N  N41  1  0.44843286  0.09001831  0.11467546  1
  N  N42  1  0.22547249  0.20550074  0.83135724  1
  N  N43  1  0.08199601  0.10805872  0.58066528  1
  N  N44  1  0.89104031  0.20717269  0.31283008  1
  N  N45  1  0.77437160  0.09067618  0.11537326  1
  N  N46  1  0.55843260  0.20714093  0.86630923  1
  N  N47  1  0.45167057  0.09217480  0.61655534  1
  N  N48  1  0.22324301  0.54025004  0.36557051  1
  N  N49  1  0.11241453  0.42796021  0.11453118  1
  N  N50  1  0.88757069  0.54097803  0.81989313  1
  N  N51  1  0.79316145  0.39875576  0.57751502  1
  N  N52  1  0.55162639  0.54254518  0.37698609  1
  N  N53  1  0.44552790  0.42816636  0.11704483  1
  N  N54  1  0.22392972  0.54056231  0.87052572  1
  N  N55  1  0.11414059  0.43114031  0.61323155  1
  N  N56  1  0.88318843  0.53650594  0.32211567  1
  N  N57  1  0.77859267  0.42255595  0.05812582  1
  N  N58  1  0.53907281  0.56724625  0.85744224  1
  N  N59  1  0.44244246  0.42705753  0.61937392  1
  N  N60  1  0.22567428  0.86780093  0.37769165  1
  N  N61  1  0.11135576  0.76225624  0.11700184  1
  N  N62  1  0.89036178  0.87518323  0.86601659  1
  N  N63  1  0.77538601  0.76818049  0.61493921  1
  N  N64  1  0.55383332  0.87174838  0.37193653  1
  N  N65  1  0.44372666  0.76064631  0.12289481  1
  N  N66  1  0.25085206  0.85480571  0.85644836  1
  N  N67  1  0.11035269  0.75850027  0.61946650  1
  N  N68  1  0.89008194  0.87192413  0.36753450  1
  N  N69  1  0.77239863  0.76663404  0.11475530  1
  N  N70  1  0.54353082  0.86034732  0.86197831  1
  N  N71  1  0.44587676  0.76159036  0.63992811  1
