# generated using pymatgen
data_Al17BN18
_symmetry_space_group_name_H-M   'P 1'
_cell_length_a   9.32721816
_cell_length_b   9.32721562
_cell_length_c   10.07501320
_cell_angle_alpha   90.16139631
_cell_angle_beta   90.16198972
_cell_angle_gamma   60.26565233
_symmetry_Int_Tables_number   1
_chemical_formula_structural   Al17BN18
_chemical_formula_sum   'Al34 B2 N36'
_cell_volume   761.08723873
_cell_formula_units_Z   2
loop_
 _symmetry_equiv_pos_site_id
 _symmetry_equiv_pos_as_xyz
  1  'x, y, z'
loop_
 _atom_site_type_symbol
 _atom_site_label
 _atom_site_symmetry_multiplicity
 _atom_site_fract_x
 _atom_site_fract_y
 _atom_site_fract_z
 _atom_site_occupancy
  Al  Al0  1  0.10329521  0.10320433  0.40601093  1
  Al  Al1  1  0.22074208  0.20229599  0.15021574  1
  Al  Al2  1  0.77843699  0.09509890  0.89610962  1
  Al  Al3  1  0.44506394  0.09443096  0.40202779  1
  Al  Al4  1  0.56051252  0.20001864  0.14877364  1
  Al  Al5  1  0.11132863  0.09632830  0.88704337  1
  Al  Al6  1  0.21643265  0.20709515  0.65130466  1
  Al  Al7  1  0.78048339  0.09714749  0.40457689  1
  Al  Al8  1  0.88955283  0.20621784  0.14610350  1
  Al  Al9  1  0.44270789  0.08952395  0.90112780  1
  Al  Al10  1  0.56280257  0.19841150  0.65140232  1
  Al  Al11  1  0.11022408  0.42688740  0.39650643  1
  Al  Al12  1  0.22294386  0.53961211  0.11155087  1
  Al  Al13  1  0.77966647  0.42799108  0.88704405  1
  Al  Al14  1  0.89043211  0.53309586  0.65130474  1
  Al  Al15  1  0.44848243  0.43263079  0.33375424  1
  Al  Al16  1  0.54923253  0.54864469  0.07277910  1
  Al  Al17  1  0.10968452  0.42634713  0.90304020  1
  Al  Al18  1  0.22157927  0.53824264  0.60683919  1
  Al  Al19  1  0.78654238  0.41995830  0.40601103  1
  Al  Al20  1  0.88563153  0.53740817  0.15021623  1
  Al  Al21  1  0.44216625  0.43546692  0.83391864  1
  Al  Al22  1  0.55504744  0.53598242  0.59133992  1
  Al  Al23  1  0.11596635  0.76514641  0.33375404  1
  Al  Al24  1  0.23197993  0.86589564  0.07277944  1
  Al  Al25  1  0.77286089  0.75937144  0.90112796  1
  Al  Al26  1  0.88174817  0.87946549  0.65140244  1
  Al  Al27  1  0.44290037  0.75956457  0.33484372  1
  Al  Al28  1  0.55855828  0.87522451  0.15106760  1
  Al  Al29  1  0.11880524  0.75882880  0.83391850  1
  Al  Al30  1  0.21931908  0.87170936  0.59134010  1
  Al  Al31  1  0.77776643  0.76172895  0.40202785  1
  Al  Al32  1  0.88334958  0.87718089  0.14877441  1
  Al  Al33  1  0.55483191  0.87149487  0.65618149  1
  B  B34  1  0.88955331  0.20621653  0.65448697  1
  B  B35  1  0.44148417  0.75814670  0.82256658  1
  N  N36  1  0.22210893  0.20313822  0.34077896  1
  N  N37  1  0.10722325  0.09825827  0.08041456  1
  N  N38  1  0.88790570  0.20456884  0.81776585  1
  N  N39  1  0.78957892  0.10624271  0.59611794  1
  N  N40  1  0.56047982  0.20067703  0.34325404  1
  N  N41  1  0.44308008  0.09494660  0.09040591  1
  N  N42  1  0.22287045  0.20751865  0.83829352  1
  N  N43  1  0.08255444  0.11090972  0.60081871  1
  N  N44  1  0.88927171  0.20593600  0.33486383  1
  N  N45  1  0.77886466  0.09553286  0.08555724  1
  N  N46  1  0.55741128  0.19919414  0.84293374  1
  N  N47  1  0.44287784  0.09187278  0.59189779  1
  N  N48  1  0.22336769  0.54003136  0.36729934  1
  N  N49  1  0.10785241  0.42451809  0.09426941  1
  N  N50  1  0.89085503  0.53953447  0.83829364  1
  N  N51  1  0.79424772  0.39921725  0.60081862  1
  N  N52  1  0.55460733  0.54358586  0.40078552  1
  N  N53  1  0.45020439  0.43108147  0.13824400  1
  N  N54  1  0.22249730  0.53915932  0.87888680  1
  N  N55  1  0.10805883  0.42472275  0.58756757  1
  N  N56  1  0.88647388  0.53877437  0.34077924  1
  N  N57  1  0.78159478  0.42388853  0.08041501  1
  N  N58  1  0.54065612  0.56747546  0.87987366  1
  N  N59  1  0.44393687  0.42735455  0.64116381  1
  N  N60  1  0.22692256  0.87126995  0.40078547  1
  N  N61  1  0.11441270  0.76687184  0.13824385  1
  N  N62  1  0.88253253  0.87407388  0.84293406  1
  N  N63  1  0.77520867  0.75954180  0.59189786  1
  N  N64  1  0.55915411  0.87581957  0.34279934  1
  N  N65  1  0.44251638  0.75918034  0.14558272  1
  N  N66  1  0.25081290  0.85731879  0.87987377  1
  N  N67  1  0.11069081  0.76059953  0.64116378  1
  N  N68  1  0.88401237  0.87714490  0.34325438  1
  N  N69  1  0.77827976  0.75974692  0.09040619  1
  N  N70  1  0.54536712  0.86203080  0.84633922  1
  N  N71  1  0.43832896  0.75499179  0.66024914  1
