# generated using pymatgen
data_Al17BN18
_symmetry_space_group_name_H-M   'P 1'
_cell_length_a   9.32419245
_cell_length_b   9.32967682
_cell_length_c   10.04453691
_cell_angle_alpha   90.00613184
_cell_angle_beta   90.01616268
_cell_angle_gamma   60.15742996
_symmetry_Int_Tables_number   1
_chemical_formula_structural   Al17BN18
_chemical_formula_sum   'Al34 B2 N36'
_cell_volume   757.92307549
_cell_formula_units_Z   2
loop_
 _symmetry_equiv_pos_site_id
 _symmetry_equiv_pos_as_xyz
  1  'x, y, z'
loop_
 _atom_site_type_symbol
 _atom_site_label
 _atom_site_symmetry_multiplicity
 _atom_site_fract_x
 _atom_site_fract_y
 _atom_site_fract_z
 _atom_site_occupancy
  Al  Al0  1  0.09862119  0.09758740  0.38383881  1
  Al  Al1  1  0.22428608  0.20617202  0.05534459  1
  Al  Al2  1  0.77786460  0.09473904  0.80242939  1
  Al  Al3  1  0.44176205  0.09325205  0.30906281  1
  Al  Al4  1  0.55602571  0.20485805  0.05708966  1
  Al  Al5  1  0.11348204  0.09250907  0.86075283  1
  Al  Al6  1  0.22140536  0.20948592  0.56410867  1
  Al  Al7  1  0.77316867  0.09097306  0.30752144  1
  Al  Al8  1  0.89153698  0.20701098  0.12412772  1
  Al  Al9  1  0.44610325  0.09028591  0.80632996  1
  Al  Al10  1  0.56084180  0.20714464  0.55746519  1
  Al  Al11  1  0.11054394  0.42563327  0.31080897  1
  Al  Al12  1  0.22228654  0.53836851  0.06027258  1
  Al  Al13  1  0.77697873  0.43007316  0.86267163  1
  Al  Al14  1  0.89020407  0.53569755  0.59182759  1
  Al  Al15  1  0.44628935  0.42876054  0.30934218  1
  Al  Al16  1  0.54644429  0.54614319  0.05239365  1
  Al  Al17  1  0.11670886  0.42836644  0.80813452  1
  Al  Al18  1  0.22282399  0.53956219  0.55533949  1
  Al  Al19  1  0.78345762  0.41799128  0.38511008  1
  Al  Al20  1  0.88834136  0.53890944  0.07401633  1
  Al  Al21  1  0.44248088  0.43326507  0.80796665  1
  Al  Al22  1  0.55328975  0.53840729  0.57195766  1
  Al  Al23  1  0.11202729  0.76180750  0.30917931  1
  Al  Al24  1  0.22900750  0.86347484  0.05257299  1
  Al  Al25  1  0.77155132  0.76598887  0.80829284  1
  Al  Al26  1  0.89041737  0.87760029  0.55704086  1
  Al  Al27  1  0.44397394  0.76007312  0.31232187  1
  Al  Al28  1  0.55124228  0.87010788  0.05473057  1
  Al  Al29  1  0.11657894  0.75827351  0.80785231  1
  Al  Al30  1  0.22162665  0.87047021  0.57286672  1
  Al  Al31  1  0.77539180  0.76041028  0.31046336  1
  Al  Al32  1  0.88840076  0.87332580  0.05682425  1
  Al  Al33  1  0.55412815  0.87226506  0.56246363  1
  B  B34  1  0.89286707  0.20836550  0.63703272  1
  B  B35  1  0.44379512  0.76028505  0.80336094  1
  N  N36  1  0.22295053  0.20540857  0.37151608  1
  N  N37  1  0.10469980  0.09306762  0.05776730  1
  N  N38  1  0.89462259  0.21126093  0.79749338  1
  N  N39  1  0.78754082  0.10401941  0.61191074  1
  N  N40  1  0.55375080  0.20605669  0.36775074  1
  N  N41  1  0.44375034  0.09245649  0.11717906  1
  N  N42  1  0.22845626  0.20933999  0.86368962  1
  N  N43  1  0.08260419  0.10894288  0.58187341  1
  N  N44  1  0.88951256  0.20789928  0.31305566  1
  N  N45  1  0.77382706  0.09088948  0.11612643  1
  N  N46  1  0.55811890  0.20658341  0.86662997  1
  N  N47  1  0.44688360  0.09478642  0.61786025  1
  N  N48  1  0.22269495  0.53846312  0.36609374  1
  N  N49  1  0.11265554  0.42478372  0.11893493  1
  N  N50  1  0.89209404  0.54275874  0.84746597  1
  N  N51  1  0.79223288  0.39850735  0.58192128  1
  N  N52  1  0.55114525  0.54199179  0.37792081  1
  N  N53  1  0.44569422  0.42788473  0.11769649  1
  N  N54  1  0.22362560  0.53974970  0.87154260  1
  N  N55  1  0.11655169  0.42809985  0.61940630  1
  N  N56  1  0.88820481  0.53897659  0.35854668  1
  N  N57  1  0.77728501  0.42113189  0.05752727  1
  N  N58  1  0.53844189  0.56749528  0.85667741  1
  N  N59  1  0.44219565  0.42697278  0.62008036  1
  N  N60  1  0.22540085  0.86686729  0.37757788  1
  N  N61  1  0.11134590  0.76148422  0.11761662  1
  N  N62  1  0.89025258  0.87523753  0.86689189  1
  N  N63  1  0.77587314  0.76720964  0.61827333  1
  N  N64  1  0.55349402  0.87214390  0.37197522  1
  N  N65  1  0.44363122  0.76012571  0.12317874  1
  N  N66  1  0.25093497  0.85466535  0.85590141  1
  N  N67  1  0.11020818  0.75851766  0.61995049  1
  N  N68  1  0.88920586  0.87158940  0.36761012  1
  N  N69  1  0.77388972  0.76358007  0.11609461  1
  N  N70  1  0.54272521  0.86142311  0.86218444  1
  N  N71  1  0.44586927  0.76184994  0.63995137  1
