# generated using pymatgen
data_Al17BN18
_symmetry_space_group_name_H-M   'P 1'
_cell_length_a   9.33284463
_cell_length_b   9.33259976
_cell_length_c   10.13565607
_cell_angle_alpha   90.05771759
_cell_angle_beta   90.07212307
_cell_angle_gamma   60.14288979
_symmetry_Int_Tables_number   1
_chemical_formula_structural   Al17BN18
_chemical_formula_sum   'Al34 B2 N36'
_cell_volume   765.63593533
_cell_formula_units_Z   2
loop_
 _symmetry_equiv_pos_site_id
 _symmetry_equiv_pos_as_xyz
  1  'x, y, z'
loop_
 _atom_site_type_symbol
 _atom_site_label
 _atom_site_symmetry_multiplicity
 _atom_site_fract_x
 _atom_site_fract_y
 _atom_site_fract_z
 _atom_site_occupancy
  Al  Al0  1  0.10416797  0.10198061  0.39320736  1
  Al  Al1  1  0.22073809  0.20248337  0.13689887  1
  Al  Al2  1  0.78111778  0.09798167  0.87052728  1
  Al  Al3  1  0.44186357  0.09136294  0.39019938  1
  Al  Al4  1  0.55309776  0.21247068  0.06473060  1
  Al  Al5  1  0.11134015  0.09538362  0.87506204  1
  Al  Al6  1  0.21482262  0.20896617  0.63805761  1
  Al  Al7  1  0.78385847  0.10020640  0.38899693  1
  Al  Al8  1  0.88930129  0.20587077  0.13300742  1
  Al  Al9  1  0.43822386  0.08732379  0.88465690  1
  Al  Al10  1  0.55648371  0.21131405  0.57817283  1
  Al  Al11  1  0.10898433  0.42567014  0.38250271  1
  Al  Al12  1  0.22504581  0.54157155  0.07301401  1
  Al  Al13  1  0.77861979  0.42809582  0.87506339  1
  Al  Al14  1  0.89217278  0.53157942  0.63810176  1
  Al  Al15  1  0.44851469  0.42787148  0.31861975  1
  Al  Al16  1  0.54893666  0.54842845  0.06104650  1
  Al  Al17  1  0.10844464  0.42520182  0.89005456  1
  Al  Al18  1  0.22486353  0.54166321  0.56467023  1
  Al  Al19  1  0.78529121  0.42082263  0.39323510  1
  Al  Al20  1  0.88585350  0.53737741  0.13689132  1
  Al  Al21  1  0.43962130  0.43514338  0.81665660  1
  Al  Al22  1  0.55481425  0.53710951  0.57862539  1
  Al  Al23  1  0.11130849  0.76508959  0.31865981  1
  Al  Al24  1  0.23188515  0.86555137  0.06105436  1
  Al  Al25  1  0.77053649  0.75501815  0.88448215  1
  Al  Al26  1  0.89438958  0.87334998  0.57891782  1
  Al  Al27  1  0.44205733  0.75861880  0.32114469  1
  Al  Al28  1  0.55952334  0.87600074  0.13758794  1
  Al  Al29  1  0.11851069  0.75636108  0.81670515  1
  Al  Al30  1  0.22034614  0.87157436  0.57858499  1
  Al  Al31  1  0.77485797  0.75852946  0.39041430  1
  Al  Al32  1  0.89592188  0.86964445  0.06465280  1
  Al  Al33  1  0.55475050  0.87169872  0.64504050  1
  B  B34  1  0.88956069  0.20640596  0.64115054  1
  B  B35  1  0.43991738  0.75668895  0.81015612  1
  N  N36  1  0.22179276  0.20279659  0.32631729  1
  N  N37  1  0.10742276  0.09775295  0.06742616  1
  N  N38  1  0.89010751  0.20689885  0.80333087  1
  N  N39  1  0.79286865  0.10974608  0.58956614  1
  N  N40  1  0.55434558  0.21115303  0.38177703  1
  N  N41  1  0.44010955  0.09298504  0.07557397  1
  N  N42  1  0.22028170  0.20849316  0.82403869  1
  N  N43  1  0.08334903  0.11078565  0.58670691  1
  N  N44  1  0.89045054  0.20711681  0.32068344  1
  N  N45  1  0.78151608  0.09799663  0.07209381  1
  N  N46  1  0.55019743  0.21164263  0.86842183  1
  N  N47  1  0.43948975  0.08977971  0.58186923  1
  N  N48  1  0.22582624  0.54235005  0.37361043  1
  N  N49  1  0.10816066  0.42480537  0.08156530  1
  N  N50  1  0.89171786  0.53703184  0.82405006  1
  N  N51  1  0.79402158  0.40012442  0.58673469  1
  N  N52  1  0.55323443  0.54288077  0.38747647  1
  N  N53  1  0.44783501  0.42934576  0.12929561  1
  N  N54  1  0.22454361  0.54125326  0.88265767  1
  N  N55  1  0.10875182  0.42561102  0.57333761  1
  N  N56  1  0.88608510  0.53850739  0.32634784  1
  N  N57  1  0.78113609  0.42402746  0.06741423  1
  N  N58  1  0.53911378  0.56694647  0.86771690  1
  N  N59  1  0.44017024  0.42997055  0.63148701  1
  N  N60  1  0.22630457  0.86990732  0.38743341  1
  N  N61  1  0.11282092  0.76437094  0.12924232  1
  N  N62  1  0.89475337  0.86705672  0.86795271  1
  N  N63  1  0.77290288  0.75634509  0.58208798  1
  N  N64  1  0.55920288  0.87567684  0.32830024  1
  N  N65  1  0.44233217  0.75883702  0.13314121  1
  N  N66  1  0.25023647  0.85588347  0.86774465  1
  N  N67  1  0.11333066  0.75688773  0.63155909  1
  N  N68  1  0.89473629  0.87080949  0.38199926  1
  N  N69  1  0.77641251  0.75672767  0.07539507  1
  N  N70  1  0.54480970  0.86167485  0.83292194  1
  N  N71  1  0.43798979  0.75476588  0.64854051  1
