# generated using pymatgen
data_Al17BN18
_symmetry_space_group_name_H-M   'P 1'
_cell_length_a   9.32221455
_cell_length_b   9.32226025
_cell_length_c   10.05984570
_cell_angle_alpha   89.79079148
_cell_angle_beta   89.75652098
_cell_angle_gamma   60.10132750
_symmetry_Int_Tables_number   1
_chemical_formula_structural   Al17BN18
_chemical_formula_sum   'Al34 B2 N36'
_cell_volume   757.87956276
_cell_formula_units_Z   2
loop_
 _symmetry_equiv_pos_site_id
 _symmetry_equiv_pos_as_xyz
  1  'x, y, z'
loop_
 _atom_site_type_symbol
 _atom_site_label
 _atom_site_symmetry_multiplicity
 _atom_site_fract_x
 _atom_site_fract_y
 _atom_site_fract_z
 _atom_site_occupancy
  Al  Al0  1  0.10261610  0.10431111  0.40220017  1
  Al  Al1  1  0.22150761  0.20465542  0.14862242  1
  Al  Al2  1  0.77868960  0.09572017  0.89406512  1
  Al  Al3  1  0.44512805  0.09355519  0.40259061  1
  Al  Al4  1  0.55710994  0.20535985  0.14846532  1
  Al  Al5  1  0.11262048  0.09581909  0.88674539  1
  Al  Al6  1  0.21698458  0.20770294  0.64922629  1
  Al  Al7  1  0.78038118  0.09697653  0.40255340  1
  Al  Al8  1  0.88945142  0.20505117  0.14581904  1
  Al  Al9  1  0.44232738  0.08980227  0.89947475  1
  Al  Al10  1  0.55973794  0.20571243  0.65080303  1
  Al  Al11  1  0.11141770  0.42813724  0.39845380  1
  Al  Al12  1  0.22262160  0.53966095  0.14829680  1
  Al  Al13  1  0.77837784  0.42996333  0.88805569  1
  Al  Al14  1  0.89073882  0.53364995  0.64930154  1
  Al  Al15  1  0.44240232  0.42373402  0.39842940  1
  Al  Al16  1  0.55326028  0.54787037  0.08685591  1
  Al  Al17  1  0.11083706  0.42738792  0.90063563  1
  Al  Al18  1  0.22098143  0.53736837  0.64978910  1
  Al  Al19  1  0.78761228  0.41931588  0.40148643  1
  Al  Al20  1  0.88844394  0.53811986  0.14885721  1
  Al  Al21  1  0.44023693  0.43143293  0.89550936  1
  Al  Al22  1  0.55698295  0.53765024  0.58666236  1
  Al  Al23  1  0.10702702  0.75921489  0.39914719  1
  Al  Al24  1  0.23239002  0.86932574  0.08273130  1
  Al  Al25  1  0.77301476  0.75897371  0.89962174  1
  Al  Al26  1  0.88855305  0.87663360  0.65076372  1
  Al  Al27  1  0.44192154  0.75959311  0.34195413  1
  Al  Al28  1  0.55921514  0.87577449  0.15336114  1
  Al  Al29  1  0.11418368  0.75660776  0.89440918  1
  Al  Al30  1  0.22096368  0.87366724  0.58728474  1
  Al  Al31  1  0.77688190  0.76183612  0.40253140  1
  Al  Al32  1  0.88939753  0.87352980  0.14826852  1
  Al  Al33  1  0.55321961  0.86988801  0.65187530  1
  B  B34  1  0.88956269  0.20684291  0.65240796  1
  B  B35  1  0.44391993  0.75979217  0.84770495  1
  N  N36  1  0.22232855  0.20528651  0.33995899  1
  N  N37  1  0.10758817  0.09998055  0.08103434  1
  N  N38  1  0.88811168  0.20577810  0.81768956  1
  N  N39  1  0.78989316  0.10674873  0.59570147  1
  N  N40  1  0.55787637  0.20347888  0.33970154  1
  N  N41  1  0.44429933  0.09424662  0.08894124  1
  N  N42  1  0.22296812  0.20784846  0.83731752  1
  N  N43  1  0.08296657  0.11168184  0.59940268  1
  N  N44  1  0.88919026  0.20538946  0.33337855  1
  N  N45  1  0.77868140  0.09512993  0.08482683  1
  N  N46  1  0.55511342  0.20490366  0.83993427  1
  N  N47  1  0.44439146  0.09329867  0.59280625  1
  N  N48  1  0.22236528  0.53942150  0.33716491  1
  N  N49  1  0.11139170  0.42777312  0.09011967  1
  N  N50  1  0.89108688  0.53944675  0.83757849  1
  N  N51  1  0.79463816  0.39992361  0.59864270  1
  N  N52  1  0.55965081  0.53691410  0.38717522  1
  N  N53  1  0.44350697  0.42569373  0.08782276  1
  N  N54  1  0.22128056  0.53733956  0.83795077  1
  N  N55  1  0.11073285  0.42753284  0.58721535  1
  N  N56  1  0.88875869  0.53905154  0.33999242  1
  N  N57  1  0.78368925  0.42384657  0.08226171  1
  N  N58  1  0.53958814  0.57235890  0.88212481  1
  N  N59  1  0.43999643  0.42309047  0.59108794  1
  N  N60  1  0.22020910  0.87641899  0.38918874  1
  N  N61  1  0.10944622  0.76003070  0.08670998  1
  N  N62  1  0.88758697  0.87209634  0.83978005  1
  N  N63  1  0.77656484  0.76102792  0.59274318  1
  N  N64  1  0.55960980  0.87626710  0.34341309  1
  N  N65  1  0.44255695  0.76010310  0.14998010  1
  N  N66  1  0.25569247  0.85614999  0.88114283  1
  N  N67  1  0.10629358  0.75662670  0.59195374  1
  N  N68  1  0.88713050  0.87439262  0.33968533  1
  N  N69  1  0.77788271  0.76080078  0.08908112  1
  N  N70  1  0.54306852  0.85958104  0.84598757  1
  N  N71  1  0.44207943  0.75844782  0.62514990  1
