# generated using pymatgen
data_Al17BN18
_symmetry_space_group_name_H-M   'P 1'
_cell_length_a   9.31964941
_cell_length_b   9.31953684
_cell_length_c   10.06206177
_cell_angle_alpha   89.78152557
_cell_angle_beta   89.80077802
_cell_angle_gamma   60.10370658
_symmetry_Int_Tables_number   1
_chemical_formula_structural   Al17BN18
_chemical_formula_sum   'Al34 B2 N36'
_cell_volume   757.63588577
_cell_formula_units_Z   2
loop_
 _symmetry_equiv_pos_site_id
 _symmetry_equiv_pos_as_xyz
  1  'x, y, z'
loop_
 _atom_site_type_symbol
 _atom_site_label
 _atom_site_symmetry_multiplicity
 _atom_site_fract_x
 _atom_site_fract_y
 _atom_site_fract_z
 _atom_site_occupancy
  Al  Al0  1  0.10032590  0.09737602  0.37756764  1
  Al  Al1  1  0.22558178  0.20758557  0.05835854  1
  Al  Al2  1  0.77867720  0.09535814  0.80396680  1
  Al  Al3  1  0.44380509  0.09293365  0.30946788  1
  Al  Al4  1  0.55629013  0.20497565  0.05575169  1
  Al  Al5  1  0.11279864  0.09304726  0.86794739  1
  Al  Al6  1  0.21925668  0.20959767  0.56315844  1
  Al  Al7  1  0.77388715  0.09051470  0.30540191  1
  Al  Al8  1  0.89104333  0.20819373  0.12104183  1
  Al  Al9  1  0.44474970  0.09022567  0.80673614  1
  Al  Al10  1  0.56074962  0.20721745  0.55805862  1
  Al  Al11  1  0.11010790  0.42696671  0.30971544  1
  Al  Al12  1  0.22178307  0.53847512  0.05953094  1
  Al  Al13  1  0.77634706  0.42949681  0.86725393  1
  Al  Al14  1  0.89299074  0.53620480  0.56378046  1
  Al  Al15  1  0.44517973  0.42862665  0.30919878  1
  Al  Al16  1  0.54596642  0.54681731  0.05475098  1
  Al  Al17  1  0.11285174  0.42938042  0.80762871  1
  Al  Al18  1  0.22255995  0.53920583  0.55692400  1
  Al  Al19  1  0.78086461  0.41665332  0.37907590  1
  Al  Al20  1  0.89082747  0.54225114  0.05786998  1
  Al  Al21  1  0.44210147  0.43314972  0.80827584  1
  Al  Al22  1  0.55432354  0.53754736  0.57140127  1
  Al  Al23  1  0.11199098  0.76162002  0.30907066  1
  Al  Al24  1  0.23018369  0.86259329  0.05523347  1
  Al  Al25  1  0.77339060  0.76174982  0.80673866  1
  Al  Al26  1  0.89051699  0.87752234  0.55798208  1
  Al  Al27  1  0.44451096  0.76065308  0.31207307  1
  Al  Al28  1  0.55292560  0.86954367  0.05509335  1
  Al  Al29  1  0.11647224  0.75898027  0.80825347  1
  Al  Al30  1  0.22053650  0.87134323  0.57067482  1
  Al  Al31  1  0.77641696  0.76010871  0.30957377  1
  Al  Al32  1  0.88828428  0.87294607  0.05578958  1
  Al  Al33  1  0.55440364  0.87130236  0.56365733  1
  B  B34  1  0.89141402  0.20778674  0.62801215  1
  B  B35  1  0.44327026  0.76034893  0.80477331  1
  N  N36  1  0.22379916  0.20631862  0.37040271  1
  N  N37  1  0.10914952  0.09192902  0.06502623  1
  N  N38  1  0.89395417  0.21029932  0.80860490  1
  N  N39  1  0.78852589  0.10519459  0.61240738  1
  N  N40  1  0.55519877  0.20577397  0.36839616  1
  N  N41  1  0.44576648  0.09210110  0.11796039  1
  N  N42  1  0.22725092  0.21025871  0.86610495  1
  N  N43  1  0.07950134  0.10974017  0.57705312  1
  N  N44  1  0.89007896  0.20724106  0.30957218  1
  N  N45  1  0.77419451  0.09084297  0.11436410  1
  N  N46  1  0.55720331  0.20599547  0.86582083  1
  N  N47  1  0.44557962  0.09482585  0.61799120  1
  N  N48  1  0.22202267  0.53854460  0.36745878  1
  N  N49  1  0.11031659  0.42723116  0.12054040  1
  N  N50  1  0.89356063  0.54401660  0.86558415  1
  N  N51  1  0.79297156  0.39640705  0.57792764  1
  N  N52  1  0.54999634  0.54232728  0.37661608  1
  N  N53  1  0.44470942  0.42774839  0.11783943  1
  N  N54  1  0.22255023  0.53932574  0.87082779  1
  N  N55  1  0.11263165  0.42902320  0.61988830  1
  N  N56  1  0.88974151  0.54025545  0.37102301  1
  N  N57  1  0.77524574  0.42579169  0.06408007  1
  N  N58  1  0.53831188  0.56707453  0.85810895  1
  N  N59  1  0.44208915  0.42697491  0.62042147  1
  N  N60  1  0.22584521  0.86651605  0.37594089  1
  N  N61  1  0.11104852  0.76128418  0.11783404  1
  N  N62  1  0.88932857  0.87391908  0.86586022  1
  N  N63  1  0.77794819  0.76263202  0.61806198  1
  N  N64  1  0.55475259  0.87128306  0.37285273  1
  N  N65  1  0.44436591  0.76069628  0.12408740  1
  N  N66  1  0.25025635  0.85519296  0.85855238  1
  N  N67  1  0.11036333  0.75885040  0.62029577  1
  N  N68  1  0.88920058  0.87171925  0.36832327  1
  N  N69  1  0.77553372  0.76222083  0.11795422  1
  N  N70  1  0.54341531  0.86022040  0.86210786  1
  N  N71  1  0.44453247  0.76178943  0.64025375  1
