# generated using pymatgen
data_Al17BN18
_symmetry_space_group_name_H-M   'P 1'
_cell_length_a   9.32824355
_cell_length_b   9.32824471
_cell_length_c   10.07519851
_cell_angle_alpha   90.16803781
_cell_angle_beta   90.16794394
_cell_angle_gamma   60.27839729
_symmetry_Int_Tables_number   1
_chemical_formula_structural   Al17BN18
_chemical_formula_sum   'Al34 B2 N36'
_cell_volume   761.36527369
_cell_formula_units_Z   2
loop_
 _symmetry_equiv_pos_site_id
 _symmetry_equiv_pos_as_xyz
  1  'x, y, z'
loop_
 _atom_site_type_symbol
 _atom_site_label
 _atom_site_symmetry_multiplicity
 _atom_site_fract_x
 _atom_site_fract_y
 _atom_site_fract_z
 _atom_site_occupancy
  Al  Al0  1  0.10128954  0.10081022  0.38505463  1
  Al  Al1  1  0.21789451  0.20052292  0.12361160  1
  Al  Al2  1  0.77848365  0.09517124  0.80155272  1
  Al  Al3  1  0.45000556  0.08936613  0.30917538  1
  Al  Al4  1  0.55550934  0.20497376  0.05572626  1
  Al  Al5  1  0.11392035  0.09498356  0.86658800  1
  Al  Al6  1  0.21521309  0.20646421  0.62345715  1
  Al  Al7  1  0.77474766  0.09143671  0.30667112  1
  Al  Al8  1  0.89036370  0.20705142  0.12298622  1
  Al  Al9  1  0.45171126  0.08698532  0.80648366  1
  Al  Al10  1  0.56042485  0.20735489  0.55662161  1
  Al  Al11  1  0.11126942  0.42796051  0.33218161  1
  Al  Al12  1  0.22249751  0.53918567  0.06079774  1
  Al  Al13  1  0.77829709  0.43060764  0.86658755  1
  Al  Al14  1  0.88977752  0.53190018  0.62345709  1
  Al  Al15  1  0.44762980  0.42924028  0.30761750  1
  Al  Al16  1  0.54659475  0.54668823  0.05176132  1
  Al  Al17  1  0.11292016  0.42960875  0.83576583  1
  Al  Al18  1  0.22316860  0.53985609  0.55457995  1
  Al  Al19  1  0.78412126  0.41797764  0.38505491  1
  Al  Al20  1  0.88383368  0.53458193  0.12361172  1
  Al  Al21  1  0.44301897  0.43352412  0.80647409  1
  Al  Al22  1  0.55348602  0.53866102  0.57063724  1
  Al  Al23  1  0.11255198  0.76431816  0.30761754  1
  Al  Al24  1  0.23000056  0.86328208  0.05176173  1
  Al  Al25  1  0.77029727  0.76840045  0.80648335  1
  Al  Al26  1  0.89066630  0.87711368  0.55662121  1
  Al  Al27  1  0.44373997  0.76042834  0.31163819  1
  Al  Al28  1  0.55279393  0.86948210  0.05313450  1
  Al  Al29  1  0.11683629  0.75970669  0.80647372  1
  Al  Al30  1  0.22197330  0.87017380  0.57063667  1
  Al  Al31  1  0.77267694  0.76669503  0.30917486  1
  Al  Al32  1  0.88828602  0.87219630  0.05572646  1
  Al  Al33  1  0.55485309  0.87153993  0.56159223  1
  B  B34  1  0.89177497  0.20846243  0.63522671  1
  B  B35  1  0.44375237  0.76043977  0.80328089  1
  N  N36  1  0.21942531  0.19903573  0.32061582  1
  N  N37  1  0.10625689  0.09530733  0.05704794  1
  N  N38  1  0.89500142  0.21168855  0.79750576  1
  N  N39  1  0.78793650  0.10462485  0.61140261  1
  N  N40  1  0.55507614  0.20689939  0.36731626  1
  N  N41  1  0.44941733  0.08938886  0.11452549  1
  N  N42  1  0.22333723  0.20489701  0.81756359  1
  N  N43  1  0.08238957  0.10926964  0.57783880  1
  N  N44  1  0.89080121  0.20748950  0.31216681  1
  N  N45  1  0.77412455  0.09081196  0.11492219  1
  N  N46  1  0.55814825  0.20710795  0.86584009  1
  N  N47  1  0.45099099  0.09241445  0.61483456  1
  N  N48  1  0.22508342  0.54177210  0.36426521  1
  N  N49  1  0.11075736  0.42744666  0.10114389  1
  N  N50  1  0.88820868  0.54002625  0.81756335  1
  N  N51  1  0.79258203  0.39907718  0.57783900  1
  N  N52  1  0.55161626  0.54275376  0.37730563  1
  N  N53  1  0.44657853  0.42796532  0.11692424  1
  N  N54  1  0.22488629  0.54157425  0.87060197  1
  N  N55  1  0.11182537  0.42851204  0.59008360  1
  N  N56  1  0.88234518  0.53611488  0.32061593  1
  N  N57  1  0.77861979  0.42294386  0.05704744  1
  N  N58  1  0.53896178  0.56742020  0.85699320  1
  N  N59  1  0.44242520  0.42716742  0.61945345  1
  N  N60  1  0.22606529  0.86830506  0.37730518  1
  N  N61  1  0.11127727  0.76326642  0.11692438  1
  N  N62  1  0.89042035  0.87483621  0.86584025  1
  N  N63  1  0.77572737  0.76767829  0.61483424  1
  N  N64  1  0.55441342  0.87110240  0.37220108  1
  N  N65  1  0.44402804  0.76071563  0.12286779  1
  N  N66  1  0.25073294  0.85564861  0.85699345  1
  N  N67  1  0.11047926  0.75911331  0.61945301  1
  N  N68  1  0.89021061  0.87176504  0.36731585  1
  N  N69  1  0.77270073  0.76610462  0.11452519  1
  N  N70  1  0.54369755  0.86038558  0.86165276  1
  N  N71  1  0.44539528  0.76208301  0.63998325  1
