# generated using pymatgen
data_Al17BN18
_symmetry_space_group_name_H-M   'P 1'
_cell_length_a   9.33087174
_cell_length_b   9.32409081
_cell_length_c   10.04975368
_cell_angle_alpha   90.02586306
_cell_angle_beta   90.01175775
_cell_angle_gamma   60.17212234
_symmetry_Int_Tables_number   1
_chemical_formula_structural   Al17BN18
_chemical_formula_sum   'Al34 B2 N36'
_cell_volume   758.51706801
_cell_formula_units_Z   2
loop_
 _symmetry_equiv_pos_site_id
 _symmetry_equiv_pos_as_xyz
  1  'x, y, z'
loop_
 _atom_site_type_symbol
 _atom_site_label
 _atom_site_symmetry_multiplicity
 _atom_site_fract_x
 _atom_site_fract_y
 _atom_site_fract_z
 _atom_site_occupancy
  Al  Al0  1  0.10366429  0.10368761  0.40551661  1
  Al  Al1  1  0.22118757  0.20343330  0.14839599  1
  Al  Al2  1  0.77761926  0.09586959  0.89542804  1
  Al  Al3  1  0.44514391  0.09400282  0.40066131  1
  Al  Al4  1  0.55670624  0.20826936  0.14879641  1
  Al  Al5  1  0.11155791  0.09660435  0.88615157  1
  Al  Al6  1  0.21669435  0.20726504  0.64985568  1
  Al  Al7  1  0.77966367  0.09889390  0.40327401  1
  Al  Al8  1  0.88999447  0.20597428  0.14539976  1
  Al  Al9  1  0.44281463  0.08913774  0.90027894  1
  Al  Al10  1  0.55967540  0.20388502  0.65158242  1
  Al  Al11  1  0.11155202  0.42763942  0.39771965  1
  Al  Al12  1  0.22521700  0.53768894  0.14688132  1
  Al  Al13  1  0.77956900  0.42827487  0.88488467  1
  Al  Al14  1  0.89168590  0.53335227  0.65004391  1
  Al  Al15  1  0.44394714  0.42552676  0.40270937  1
  Al  Al16  1  0.55240898  0.55149625  0.07387214  1
  Al  Al17  1  0.11039677  0.42716079  0.90251538  1
  Al  Al18  1  0.22237431  0.53187226  0.64955436  1
  Al  Al19  1  0.78652638  0.42093444  0.40519766  1
  Al  Al20  1  0.88815169  0.53790061  0.14864222  1
  Al  Al21  1  0.44048534  0.42852133  0.89388134  1
  Al  Al22  1  0.55746381  0.53662181  0.59708815  1
  Al  Al23  1  0.11266082  0.76363802  0.36280228  1
  Al  Al24  1  0.23135844  0.86569475  0.07233151  1
  Al  Al25  1  0.77244898  0.75953799  0.90081891  1
  Al  Al26  1  0.88260239  0.87923790  0.64929351  1
  Al  Al27  1  0.44338624  0.75826470  0.33360259  1
  Al  Al28  1  0.55881343  0.87680051  0.15020926  1
  Al  Al29  1  0.11548077  0.76109883  0.84715619  1
  Al  Al30  1  0.21951174  0.87228632  0.59385679  1
  Al  Al31  1  0.77665078  0.76150939  0.40118581  1
  Al  Al32  1  0.88771076  0.87554372  0.14703953  1
  Al  Al33  1  0.55507793  0.87212411  0.65541385  1
  B  B34  1  0.88975497  0.20611493  0.65436084  1
  B  B35  1  0.44179715  0.75701196  0.82092475  1
  N  N36  1  0.22208214  0.20405781  0.34006632  1
  N  N37  1  0.10796162  0.09869603  0.07979437  1
  N  N38  1  0.88825331  0.20396527  0.81771703  1
  N  N39  1  0.78841884  0.10744865  0.59556243  1
  N  N40  1  0.55752935  0.20625937  0.34059259  1
  N  N41  1  0.44392716  0.09625246  0.09001276  1
  N  N42  1  0.22297489  0.20758618  0.83764452  1
  N  N43  1  0.08258801  0.11136271  0.60079618  1
  N  N44  1  0.88989476  0.20620665  0.33455538  1
  N  N45  1  0.77758089  0.09683355  0.08576709  1
  N  N46  1  0.55518226  0.20310922  0.83989478  1
  N  N47  1  0.44341186  0.09186550  0.59110266  1
  N  N48  1  0.22607361  0.53544864  0.33963783  1
  N  N49  1  0.11138387  0.42713783  0.09165241  1
  N  N50  1  0.89146019  0.53973262  0.83780474  1
  N  N51  1  0.79533398  0.39902379  0.60179841  1
  N  N52  1  0.55694880  0.54526857  0.40009074  1
  N  N53  1  0.44485221  0.42692119  0.08623873  1
  N  N54  1  0.22239456  0.53237679  0.83947811  1
  N  N55  1  0.11010908  0.42633094  0.58626623  1
  N  N56  1  0.88851803  0.53862196  0.34015675  1
  N  N57  1  0.78311602  0.42455743  0.08014356  1
  N  N58  1  0.54114641  0.56730233  0.87585308  1
  N  N59  1  0.44090124  0.42139912  0.59409927  1
  N  N60  1  0.22851907  0.87192765  0.40076596  1
  N  N61  1  0.11223641  0.76321823  0.11483804  1
  N  N62  1  0.88169696  0.87461263  0.84060649  1
  N  N63  1  0.77473339  0.75962613  0.59094144  1
  N  N64  1  0.55902107  0.87614943  0.34169602  1
  N  N65  1  0.44200706  0.76054436  0.14473529  1
  N  N66  1  0.25134215  0.85726916  0.87710389  1
  N  N67  1  0.10846080  0.75923438  0.62504227  1
  N  N68  1  0.88461947  0.87696459  0.34261493  1
  N  N69  1  0.77825167  0.76063815  0.09016070  1
  N  N70  1  0.54584743  0.86232896  0.84586909  1
  N  N71  1  0.43840052  0.75558990  0.66025397  1
