# generated using pymatgen
data_Al17BN18
_symmetry_space_group_name_H-M   'P 1'
_cell_length_a   9.31244807
_cell_length_b   9.31817939
_cell_length_c   9.99984258
_cell_angle_alpha   90.04766219
_cell_angle_beta   89.76542910
_cell_angle_gamma   60.02207154
_symmetry_Int_Tables_number   1
_chemical_formula_structural   Al17BN18
_chemical_formula_sum   'Al34 B2 N36'
_cell_volume   751.63888172
_cell_formula_units_Z   2
loop_
 _symmetry_equiv_pos_site_id
 _symmetry_equiv_pos_as_xyz
  1  'x, y, z'
loop_
 _atom_site_type_symbol
 _atom_site_label
 _atom_site_symmetry_multiplicity
 _atom_site_fract_x
 _atom_site_fract_y
 _atom_site_fract_z
 _atom_site_occupancy
  Al  Al0  1  0.10209182  0.10400166  0.40062173  1
  Al  Al1  1  0.22202648  0.20413772  0.14760167  1
  Al  Al2  1  0.77819191  0.09611512  0.89372710  1
  Al  Al3  1  0.44498390  0.09503195  0.40032573  1
  Al  Al4  1  0.55656007  0.20512438  0.14780110  1
  Al  Al5  1  0.11403023  0.09231085  0.88651014  1
  Al  Al6  1  0.21658023  0.20835149  0.64892228  1
  Al  Al7  1  0.78064293  0.09727768  0.40162833  1
  Al  Al8  1  0.88883911  0.20593175  0.14536777  1
  Al  Al9  1  0.44157448  0.09024872  0.89814459  1
  Al  Al10  1  0.55954805  0.20669619  0.64971633  1
  Al  Al11  1  0.11073908  0.42827695  0.39748222  1
  Al  Al12  1  0.22309697  0.53885811  0.14814940  1
  Al  Al13  1  0.77347587  0.43273054  0.89229021  1
  Al  Al14  1  0.89072645  0.53381690  0.64913901  1
  Al  Al15  1  0.44525803  0.42669740  0.40021396  1
  Al  Al16  1  0.55838115  0.53601629  0.15161071  1
  Al  Al17  1  0.11032882  0.42753990  0.90040940  1
  Al  Al18  1  0.22190630  0.53716391  0.64958208  1
  Al  Al19  1  0.78039387  0.42200614  0.40454429  1
  Al  Al20  1  0.88656296  0.53877355  0.14855789  1
  Al  Al21  1  0.44203300  0.43411221  0.89885029  1
  Al  Al22  1  0.55658735  0.53823041  0.64548378  1
  Al  Al23  1  0.10800319  0.75953782  0.39756920  1
  Al  Al24  1  0.22831724  0.87043307  0.11125233  1
  Al  Al25  1  0.77264843  0.75873637  0.89871831  1
  Al  Al26  1  0.88935407  0.87681529  0.65033528  1
  Al  Al27  1  0.44818973  0.75959797  0.38063388  1
  Al  Al28  1  0.55692653  0.87289432  0.15210546  1
  Al  Al29  1  0.11606990  0.75755306  0.89416416  1
  Al  Al30  1  0.22041404  0.87480656  0.59768180  1
  Al  Al31  1  0.77822861  0.76204922  0.40098413  1
  Al  Al32  1  0.88834689  0.87378501  0.14714463  1
  Al  Al33  1  0.55338970  0.86945065  0.64577075  1
  B  B34  1  0.88799036  0.20690515  0.65286668  1
  B  B35  1  0.44125596  0.76195409  0.85927691  1
  N  N36  1  0.22205893  0.20519662  0.33943627  1
  N  N37  1  0.10825076  0.09786990  0.08049114  1
  N  N38  1  0.88726828  0.20672571  0.81810645  1
  N  N39  1  0.79045849  0.10685678  0.59582160  1
  N  N40  1  0.55752329  0.20463834  0.34049110  1
  N  N41  1  0.44504481  0.09369139  0.08809241  1
  N  N42  1  0.22201775  0.20738168  0.83747749  1
  N  N43  1  0.08304778  0.11207712  0.59783651  1
  N  N44  1  0.88803214  0.20707283  0.33390779  1
  N  N45  1  0.77868744  0.09526272  0.08485410  1
  N  N46  1  0.55425983  0.20607890  0.83969705  1
  N  N47  1  0.44411092  0.09451747  0.59198942  1
  N  N48  1  0.22325872  0.53831129  0.33826470  1
  N  N49  1  0.11070507  0.42765330  0.09061215  1
  N  N50  1  0.88984375  0.53862089  0.83841590  1
  N  N51  1  0.78937653  0.40308088  0.59892813  1
  N  N52  1  0.56208573  0.52993131  0.34329257  1
  N  N53  1  0.44558533  0.42755367  0.08839519  1
  N  N54  1  0.22214306  0.53653879  0.83896299  1
  N  N55  1  0.11121960  0.42768921  0.58743792  1
  N  N56  1  0.88690607  0.53848424  0.34132774  1
  N  N57  1  0.77809263  0.42609881  0.08294017  1
  N  N58  1  0.53983726  0.56852606  0.83986064  1
  N  N59  1  0.44401698  0.42757925  0.59103549  1
  N  N60  1  0.21699510  0.87788820  0.37286969  1
  N  N61  1  0.11020710  0.76011016  0.08662921  1
  N  N62  1  0.88782800  0.87178032  0.83977114  1
  N  N63  1  0.77840040  0.76126520  0.59246073  1
  N  N64  1  0.56018787  0.87625108  0.34216601  1
  N  N65  1  0.44844549  0.75871002  0.12480867  1
  N  N66  1  0.25362883  0.85561173  0.85872851  1
  N  N67  1  0.10850142  0.75682917  0.59086638  1
  N  N68  1  0.88752132  0.87439617  0.33925854  1
  N  N69  1  0.77799552  0.76125283  0.08842661  1
  N  N70  1  0.53994540  0.85719140  0.84094085  1
  N  N71  1  0.45175194  0.75605216  0.57982098  1
