# generated using pymatgen
data_Al17BN18
_symmetry_space_group_name_H-M   'P 1'
_cell_length_a   9.32432520
_cell_length_b   9.32432561
_cell_length_c   10.07843369
_cell_angle_alpha   90.15053914
_cell_angle_beta   90.14945965
_cell_angle_gamma   60.25184950
_symmetry_Int_Tables_number   1
_chemical_formula_structural   Al17BN18
_chemical_formula_sum   'Al34 B2 N36'
_cell_volume   760.76950611
_cell_formula_units_Z   2
loop_
 _symmetry_equiv_pos_site_id
 _symmetry_equiv_pos_as_xyz
  1  'x, y, z'
loop_
 _atom_site_type_symbol
 _atom_site_label
 _atom_site_symmetry_multiplicity
 _atom_site_fract_x
 _atom_site_fract_y
 _atom_site_fract_z
 _atom_site_occupancy
  Al  Al0  1  0.10138800  0.10074328  0.38465692  1
  Al  Al1  1  0.21665660  0.20258865  0.12434764  1
  Al  Al2  1  0.77843652  0.09512395  0.80151068  1
  Al  Al3  1  0.44968924  0.08972109  0.30870900  1
  Al  Al4  1  0.55557611  0.20483612  0.05558213  1
  Al  Al5  1  0.11413046  0.09502295  0.86605243  1
  Al  Al6  1  0.21376109  0.20911055  0.62440926  1
  Al  Al7  1  0.77469801  0.09138645  0.30660168  1
  Al  Al8  1  0.89040266  0.20709135  0.12274649  1
  Al  Al9  1  0.45111607  0.08756886  0.80617910  1
  Al  Al10  1  0.56049971  0.20715480  0.55651323  1
  Al  Al11  1  0.10928299  0.42597239  0.36070496  1
  Al  Al12  1  0.22382675  0.54051362  0.06141689  1
  Al  Al13  1  0.77833655  0.43081829  0.86605159  1
  Al  Al14  1  0.89242195  0.53044952  0.62440900  1
  Al  Al15  1  0.44753918  0.42924475  0.30746977  1
  Al  Al16  1  0.54695433  0.54668466  0.05157851  1
  Al  Al17  1  0.11039732  0.42708749  0.86610485  1
  Al  Al18  1  0.22425286  0.54093970  0.55477726  1
  Al  Al19  1  0.78405488  0.41807647  0.38465711  1
  Al  Al20  1  0.88590126  0.53334263  0.12434784  1
  Al  Al21  1  0.44248918  0.43363702  0.80645503  1
  Al  Al22  1  0.55382011  0.53866109  0.57067963  1
  Al  Al23  1  0.11255704  0.76422660  0.30746972  1
  Al  Al24  1  0.22999724  0.86364160  0.05157874  1
  Al  Al25  1  0.77088014  0.76780664  0.80617892  1
  Al  Al26  1  0.89046673  0.87718806  0.55651277  1
  Al  Al27  1  0.44374887  0.76043637  0.31155299  1
  Al  Al28  1  0.55283394  0.86952095  0.05307805  1
  Al  Al29  1  0.11694957  0.75917632  0.80645460  1
  Al  Al30  1  0.22197338  0.87050820  0.57067856  1
  Al  Al31  1  0.77303250  0.76637834  0.30870868  1
  Al  Al32  1  0.88814900  0.87226224  0.05558245  1
  Al  Al33  1  0.55487338  0.87155975  0.56157573  1
  B  B34  1  0.89184669  0.20853378  0.63507016  1
  B  B35  1  0.44374391  0.76043204  0.80321184  1
  N  N36  1  0.21795919  0.20120064  0.31826482  1
  N  N37  1  0.10648672  0.09553908  0.05678224  1
  N  N38  1  0.89491809  0.21160472  0.79736265  1
  N  N39  1  0.78792785  0.10461674  0.61134974  1
  N  N40  1  0.55495267  0.20688304  0.36732744  1
  N  N41  1  0.44903337  0.08971691  0.11439825  1
  N  N42  1  0.22157687  0.20773019  0.81557684  1
  N  N43  1  0.08258768  0.10950666  0.57774671  1
  N  N44  1  0.89072510  0.20741198  0.31204202  1
  N  N45  1  0.77413746  0.09082569  0.11492331  1
  N  N46  1  0.55804233  0.20708599  0.86580904  1
  N  N47  1  0.45044021  0.09282547  0.61467474  1
  N  N48  1  0.22550910  0.54219807  0.36277660  1
  N  N49  1  0.10893923  0.42562589  0.07831831  1
  N  N50  1  0.89104128  0.53826751  0.81557682  1
  N  N51  1  0.79281822  0.39927556  0.57774720  1
  N  N52  1  0.55177694  0.54275524  0.37729889  1
  N  N53  1  0.44704561  0.42775061  0.11703627  1
  N  N54  1  0.22537521  0.54206423  0.86980459  1
  N  N55  1  0.10979307  0.42647992  0.56832687  1
  N  N56  1  0.88451178  0.53464840  0.31826543  1
  N  N57  1  0.77885144  0.42317345  0.05678188  1
  N  N58  1  0.53916637  0.56742414  0.85679101  1
  N  N59  1  0.44245458  0.42702437  0.61943144  1
  N  N60  1  0.22606664  0.86846503  0.37729848  1
  N  N61  1  0.11106208  0.76373390  0.11703643  1
  N  N62  1  0.89039767  0.87473142  0.86580921  1
  N  N63  1  0.77613776  0.76712785  0.61467437  1
  N  N64  1  0.55445403  0.87114376  0.37208731  1
  N  N65  1  0.44401508  0.76070400  0.12283045  1
  N  N66  1  0.25073704  0.85585257  0.85679128  1
  N  N67  1  0.11033549  0.75914373  0.61943100  1
  N  N68  1  0.89019360  0.87164236  0.36732697  1
  N  N69  1  0.77302920  0.76571945  0.11439798  1
  N  N70  1  0.54375284  0.86044238  0.86151728  1
  N  N71  1  0.44538867  0.76207699  0.63990814  1
