# generated using pymatgen
data_Al17BN18
_symmetry_space_group_name_H-M   'P 1'
_cell_length_a   9.35138915
_cell_length_b   9.35138288
_cell_length_c   10.08686340
_cell_angle_alpha   90.09281649
_cell_angle_beta   90.09518182
_cell_angle_gamma   60.12321867
_symmetry_Int_Tables_number   1
_chemical_formula_structural   Al17BN18
_chemical_formula_sum   'Al34 B2 N36'
_cell_volume   764.84926938
_cell_formula_units_Z   2
loop_
 _symmetry_equiv_pos_site_id
 _symmetry_equiv_pos_as_xyz
  1  'x, y, z'
loop_
 _atom_site_type_symbol
 _atom_site_label
 _atom_site_symmetry_multiplicity
 _atom_site_fract_x
 _atom_site_fract_y
 _atom_site_fract_z
 _atom_site_occupancy
  Al  Al0  1  0.10418929  0.10148907  0.39274145  1
  Al  Al1  1  0.22089759  0.20224680  0.13706655  1
  Al  Al2  1  0.78148436  0.09817357  0.86942310  1
  Al  Al3  1  0.44195699  0.09128348  0.39160253  1
  Al  Al4  1  0.55321657  0.21190394  0.06450608  1
  Al  Al5  1  0.11147350  0.09523134  0.87528863  1
  Al  Al6  1  0.21384580  0.20987200  0.63805945  1
  Al  Al7  1  0.78338666  0.10007252  0.38927965  1
  Al  Al8  1  0.88910105  0.20578298  0.13316701  1
  Al  Al9  1  0.43775433  0.08959423  0.88028535  1
  Al  Al10  1  0.55697856  0.21217786  0.58029075  1
  Al  Al11  1  0.10893473  0.42561682  0.38209940  1
  Al  Al12  1  0.22465223  0.54133487  0.07396283  1
  Al  Al13  1  0.77854846  0.42815746  0.87528986  1
  Al  Al14  1  0.89319028  0.53052914  0.63805990  1
  Al  Al15  1  0.44840032  0.42751448  0.31931777  1
  Al  Al16  1  0.54894638  0.54686499  0.06175611  1
  Al  Al17  1  0.10845206  0.42513445  0.89056380  1
  Al  Al18  1  0.22499762  0.54168022  0.56469575  1
  Al  Al19  1  0.78480485  0.42087393  0.39274125  1
  Al  Al20  1  0.88556595  0.53758114  0.13706659  1
  Al  Al21  1  0.43939189  0.43620629  0.81694196  1
  Al  Al22  1  0.55492413  0.53764980  0.57857592  1
  Al  Al23  1  0.11082942  0.76508489  0.31931778  1
  Al  Al24  1  0.23018173  0.86562678  0.06175601  1
  Al  Al25  1  0.77291019  0.75443944  0.88028568  1
  Al  Al26  1  0.89549540  0.87365995  0.58029113  1
  Al  Al27  1  0.44276582  0.75945279  0.32176803  1
  Al  Al28  1  0.55689525  0.87357752  0.12336653  1
  Al  Al29  1  0.11952028  0.75607786  0.81694277  1
  Al  Al30  1  0.22096639  0.87160521  0.57857691  1
  Al  Al31  1  0.77460045  0.75864088  0.39160174  1
  Al  Al32  1  0.89521953  0.86990228  0.06450551  1
  Al  Al33  1  0.55485489  0.87153793  0.64164150  1
  B  B34  1  0.88984149  0.20652556  0.64160589  1
  B  B35  1  0.44057815  0.75726080  0.81097060  1
  N  N36  1  0.22198400  0.20255503  0.32714114  1
  N  N37  1  0.10734188  0.09749230  0.06841240  1
  N  N38  1  0.89048548  0.20717192  0.80397811  1
  N  N39  1  0.79328737  0.10996872  0.59061133  1
  N  N40  1  0.55421864  0.21092286  0.38235128  1
  N  N41  1  0.43901832  0.09413997  0.07325971  1
  N  N42  1  0.21880767  0.20928995  0.82440341  1
  N  N43  1  0.08367650  0.11068470  0.58697908  1
  N  N44  1  0.89014512  0.20683349  0.32122339  1
  N  N45  1  0.78134782  0.09803215  0.07171469  1
  N  N46  1  0.55083432  0.21208415  0.86658184  1
  N  N47  1  0.43942503  0.09237752  0.58567919  1
  N  N48  1  0.22547970  0.54216108  0.37296142  1
  N  N49  1  0.10805312  0.42473771  0.08267986  1
  N  N50  1  0.89260333  0.53549529  0.82440380  1
  N  N51  1  0.79400423  0.40035922  0.58697840  1
  N  N52  1  0.55304899  0.54254062  0.38663177  1
  N  N53  1  0.44759999  0.42860200  0.12910037  1
  N  N54  1  0.22436072  0.54104227  0.88271117  1
  N  N55  1  0.10915080  0.42583688  0.57357294  1
  N  N56  1  0.88586957  0.53867063  0.32714069  1
  N  N57  1  0.78081192  0.42402609  0.06841221  1
  N  N58  1  0.53926795  0.56686330  0.86801742  1
  N  N59  1  0.44008417  0.43138014  0.63120474  1
  N  N60  1  0.22585659  0.86973370  0.38663154  1
  N  N61  1  0.11192079  0.76427975  0.12909994  1
  N  N62  1  0.89539919  0.86752204  0.86658132  1
  N  N63  1  0.77569138  0.75611113  0.58567876  1
  N  N64  1  0.55743430  0.87412107  0.33623559  1
  N  N65  1  0.44151131  0.75819078  0.13225514  1
  N  N66  1  0.25017938  0.85595246  0.86801652  1
  N  N67  1  0.11469954  0.75676270  0.63120537  1
  N  N68  1  0.89424007  0.87090354  0.38235043  1
  N  N69  1  0.77745438  0.75570550  0.07325949  1
  N  N70  1  0.54439333  0.86107940  0.83532235  1
  N  N71  1  0.43867637  0.75535743  0.64860764  1
