# generated using pymatgen
data_Al17BN18
_symmetry_space_group_name_H-M   'P 1'
_cell_length_a   9.29963732
_cell_length_b   9.29963746
_cell_length_c   9.93926670
_cell_angle_alpha   89.99398651
_cell_angle_beta   89.99396711
_cell_angle_gamma   60.00210837
_symmetry_Int_Tables_number   1
_chemical_formula_structural   Al17BN18
_chemical_formula_sum   'Al34 B2 N36'
_cell_volume   744.43404968
_cell_formula_units_Z   2
loop_
 _symmetry_equiv_pos_site_id
 _symmetry_equiv_pos_as_xyz
  1  'x, y, z'
loop_
 _atom_site_type_symbol
 _atom_site_label
 _atom_site_symmetry_multiplicity
 _atom_site_fract_x
 _atom_site_fract_y
 _atom_site_fract_z
 _atom_site_occupancy
  Al  Al0  1  0.10661985  0.09534223  0.40471499  1
  Al  Al1  1  0.22118754  0.20464658  0.15098284  1
  Al  Al2  1  0.77898317  0.09564687  0.89517636  1
  Al  Al3  1  0.44526311  0.09241889  0.40062259  1
  Al  Al4  1  0.55693967  0.20495324  0.15047478  1
  Al  Al5  1  0.11400671  0.09195009  0.89443648  1
  Al  Al6  1  0.21711682  0.20693709  0.65071601  1
  Al  Al7  1  0.78057117  0.09723532  0.40507730  1
  Al  Al8  1  0.88900195  0.20566660  0.14890175  1
  Al  Al9  1  0.44260686  0.09134766  0.90074228  1
  Al  Al10  1  0.55921893  0.20715438  0.65093956  1
  Al  Al11  1  0.11093131  0.42759547  0.40061481  1
  Al  Al12  1  0.22221082  0.53887522  0.15122198  1
  Al  Al13  1  0.77528529  0.43067120  0.89443642  1
  Al  Al14  1  0.89027212  0.53378163  0.65071598  1
  Al  Al15  1  0.44543414  0.42864609  0.40030920  1
  Al  Al16  1  0.55597470  0.54045160  0.14375812  1
  Al  Al17  1  0.11112093  0.42778472  0.90156560  1
  Al  Al18  1  0.22230900  0.53897424  0.65084330  1
  Al  Al19  1  0.77867753  0.42328503  0.40471496  1
  Al  Al20  1  0.88798230  0.53785230  0.15098296  1
  Al  Al21  1  0.44294018  0.43293311  0.90118071  1
  Al  Al22  1  0.55591380  0.53966912  0.65488127  1
  Al  Al23  1  0.11198136  0.76209902  0.40030921  1
  Al  Al24  1  0.22378809  0.87263817  0.14375783  1
  Al  Al25  1  0.77468301  0.75927102  0.90074214  1
  Al  Al26  1  0.89048871  0.87588466  0.65093945  1
  Al  Al27  1  0.44448316  0.76114851  0.39878918  1
  Al  Al28  1  0.55425326  0.87091708  0.14411337  1
  Al  Al29  1  0.11626811  0.75960481  0.90118069  1
  Al  Al30  1  0.22300519  0.87257771  0.65488151  1
  Al  Al31  1  0.77575338  0.76192862  0.40062267  1
  Al  Al32  1  0.88828890  0.87360409  0.15047477  1
  Al  Al33  1  0.55277762  0.86944233  0.65559530  1
  B  B34  1  0.88831870  0.20498303  0.65523535  1
  B  B35  1  0.44439246  0.76105669  0.90396033  1
  N  N36  1  0.22130457  0.20382981  0.34373886  1
  N  N37  1  0.10923919  0.09578481  0.08611985  1
  N  N38  1  0.88902550  0.20568979  0.82071516  1
  N  N39  1  0.79035179  0.10701700  0.59907530  1
  N  N40  1  0.55758742  0.20439371  0.34367578  1
  N  N41  1  0.44373640  0.09533763  0.09162830  1
  N  N42  1  0.22199904  0.20669677  0.84059147  1
  N  N43  1  0.08719008  0.10458209  0.60039410  1
  N  N44  1  0.88911092  0.20577589  0.33828121  1
  N  N45  1  0.77858069  0.09524493  0.08741115  1
  N  N46  1  0.55444600  0.20636526  0.84166484  1
  N  N47  1  0.44542478  0.09263021  0.59355479  1
  N  N48  1  0.22237164  0.53903633  0.34217542  1
  N  N49  1  0.11086884  0.42753305  0.09302685  1
  N  N50  1  0.89003262  0.53866304  0.84059151  1
  N  N51  1  0.78791784  0.40385443  0.60039405  1
  N  N52  1  0.55702717  0.53945211  0.33791329  1
  N  N53  1  0.44432916  0.42755646  0.09176763  1
  N  N54  1  0.22196885  0.53863332  0.84158370  1
  N  N55  1  0.11140136  0.42806618  0.59087212  1
  N  N56  1  0.88716527  0.53796961  0.34373902  1
  N  N57  1  0.77912089  0.42590350  0.08611977  1
  N  N58  1  0.54275900  0.56401827  0.84799161  1
  N  N59  1  0.44511355  0.42926064  0.59236252  1
  N  N60  1  0.22278722  0.87369188  0.33791311  1
  N  N61  1  0.11089212  0.76099338  0.09176759  1
  N  N62  1  0.88970061  0.87111016  0.84166465  1
  N  N63  1  0.77596534  0.76208966  0.59355480  1
  N  N64  1  0.55464977  0.87131493  0.33659101  1
  N  N65  1  0.44425443  0.76091800  0.07011425  1
  N  N66  1  0.24735380  0.85942342  0.84799184  1
  N  N67  1  0.11259546  0.76177870  0.59236261  1
  N  N68  1  0.88772915  0.87425190  0.34367573  1
  N  N69  1  0.77867356  0.76040071  0.09162813  1
  N  N70  1  0.54302152  0.85968598  0.84925172  1
  N  N71  1  0.44411025  0.76077443  0.58815866  1
