# generated using pymatgen
data_Al17BN18
_symmetry_space_group_name_H-M   'P 1'
_cell_length_a   9.31504069
_cell_length_b   9.32044378
_cell_length_c   10.11135964
_cell_angle_alpha   90.05824665
_cell_angle_beta   90.08649447
_cell_angle_gamma   60.15435237
_symmetry_Int_Tables_number   1
_chemical_formula_structural   Al17BN18
_chemical_formula_sum   'Al34 B2 N36'
_cell_volume   761.43775216
_cell_formula_units_Z   2
loop_
 _symmetry_equiv_pos_site_id
 _symmetry_equiv_pos_as_xyz
  1  'x, y, z'
loop_
 _atom_site_type_symbol
 _atom_site_label
 _atom_site_symmetry_multiplicity
 _atom_site_fract_x
 _atom_site_fract_y
 _atom_site_fract_z
 _atom_site_occupancy
  Al  Al0  1  0.10000608  0.10110649  0.39706468  1
  Al  Al1  1  0.21930672  0.20228702  0.13818875  1
  Al  Al2  1  0.77966169  0.09465974  0.81349099  1
  Al  Al3  1  0.44502580  0.09233858  0.34164064  1
  Al  Al4  1  0.55546988  0.20507718  0.06703444  1
  Al  Al5  1  0.11440464  0.09543272  0.87922312  1
  Al  Al6  1  0.21313818  0.21068034  0.63927137  1
  Al  Al7  1  0.77354332  0.09122870  0.31816145  1
  Al  Al8  1  0.89065148  0.20689848  0.13523484  1
  Al  Al9  1  0.44912273  0.08893297  0.82611990  1
  Al  Al10  1  0.56179067  0.20831919  0.57183533  1
  Al  Al11  1  0.10647979  0.42612452  0.38583838  1
  Al  Al12  1  0.22483015  0.54145038  0.07457930  1
  Al  Al13  1  0.77888653  0.43059200  0.87856524  1
  Al  Al14  1  0.89443350  0.52876189  0.63935118  1
  Al  Al15  1  0.44645966  0.42975012  0.32015564  1
  Al  Al16  1  0.54754974  0.54652295  0.06406444  1
  Al  Al17  1  0.10911402  0.42541223  0.89230641  1
  Al  Al18  1  0.22489249  0.54232647  0.56764744  1
  Al  Al19  1  0.78371927  0.41831749  0.39659027  1
  Al  Al20  1  0.88780662  0.53158384  0.13780060  1
  Al  Al21  1  0.44149433  0.43485520  0.81927676  1
  Al  Al22  1  0.55423873  0.53879839  0.58283535  1
  Al  Al23  1  0.11191222  0.76408957  0.32024292  1
  Al  Al24  1  0.22993801  0.86438245  0.06433913  1
  Al  Al25  1  0.77287147  0.76605721  0.81903024  1
  Al  Al26  1  0.89034895  0.87702294  0.56877893  1
  Al  Al27  1  0.44329313  0.76034614  0.32397924  1
  Al  Al28  1  0.55296916  0.86909085  0.06506403  1
  Al  Al29  1  0.11724464  0.75839447  0.81965499  1
  Al  Al30  1  0.22177966  0.87124763  0.58345526  1
  Al  Al31  1  0.77285602  0.76588854  0.32023294  1
  Al  Al32  1  0.88770451  0.87235069  0.06811815  1
  Al  Al33  1  0.55606638  0.86925681  0.57763506  1
  B  B34  1  0.89298117  0.20848917  0.64736216  1
  B  B35  1  0.44441505  0.75949713  0.81610336  1
  N  N36  1  0.21551726  0.20408465  0.33070649  1
  N  N37  1  0.10695792  0.09645151  0.06974369  1
  N  N38  1  0.89564677  0.21147641  0.80932370  1
  N  N39  1  0.78932477  0.10406136  0.62414955  1
  N  N40  1  0.55515325  0.20832876  0.38254760  1
  N  N41  1  0.44660560  0.09109174  0.11595946  1
  N  N42  1  0.21953205  0.21046577  0.82737163  1
  N  N43  1  0.08297573  0.11050612  0.58983395  1
  N  N44  1  0.88962145  0.20740605  0.32413490  1
  N  N45  1  0.77388420  0.09092910  0.12752800  1
  N  N46  1  0.55929751  0.20833639  0.87685294  1
  N  N47  1  0.44837422  0.09395940  0.62322504  1
  N  N48  1  0.22440801  0.54205629  0.37580865  1
  N  N49  1  0.10848011  0.42418893  0.08274669  1
  N  N50  1  0.89398451  0.53593091  0.82810494  1
  N  N51  1  0.79357949  0.39955170  0.58976062  1
  N  N52  1  0.55120488  0.54271316  0.39006959  1
  N  N53  1  0.44767260  0.42764605  0.13046767  1
  N  N54  1  0.22504868  0.54175068  0.88355032  1
  N  N55  1  0.10915227  0.42600650  0.57537078  1
  N  N56  1  0.88613360  0.53308330  0.32941835  1
  N  N57  1  0.77969599  0.42304045  0.06891983  1
  N  N58  1  0.53945517  0.56712336  0.86976709  1
  N  N59  1  0.44217249  0.42828479  0.63287470  1
  N  N60  1  0.22535450  0.86877364  0.39019553  1
  N  N61  1  0.11078605  0.76429910  0.13042386  1
  N  N62  1  0.89038307  0.87454542  0.87895978  1
  N  N63  1  0.77798699  0.76568905  0.62839855  1
  N  N64  1  0.55523300  0.86850971  0.38745741  1
  N  N65  1  0.44427820  0.76036938  0.13581042  1
  N  N66  1  0.25067729  0.85602290  0.86983813  1
  N  N67  1  0.11018675  0.75963618  0.63271290  1
  N  N68  1  0.88908828  0.87158878  0.38005898  1
  N  N69  1  0.77362863  0.76462764  0.12704205  1
  N  N70  1  0.54504702  0.85803493  0.87283356  1
  N  N71  1  0.44514298  0.76122286  0.65316950  1
