# generated using pymatgen
data_Al17BN18
_symmetry_space_group_name_H-M   'P 1'
_cell_length_a   9.30435473
_cell_length_b   9.30435505
_cell_length_c   10.14016004
_cell_angle_alpha   90.04879025
_cell_angle_beta   90.04879012
_cell_angle_gamma   60.17780822
_symmetry_Int_Tables_number   1
_chemical_formula_structural   Al17BN18
_chemical_formula_sum   'Al34 B2 N36'
_cell_volume   761.59329382
_cell_formula_units_Z   2
loop_
 _symmetry_equiv_pos_site_id
 _symmetry_equiv_pos_as_xyz
  1  'x, y, z'
loop_
 _atom_site_type_symbol
 _atom_site_label
 _atom_site_symmetry_multiplicity
 _atom_site_fract_x
 _atom_site_fract_y
 _atom_site_fract_z
 _atom_site_occupancy
  Al  Al0  1  0.10138493  0.10099639  0.38965824  1
  Al  Al1  1  0.21527076  0.20426258  0.13080542  1
  Al  Al2  1  0.77827292  0.09496980  0.80614513  1
  Al  Al3  1  0.44881684  0.09035437  0.31351297  1
  Al  Al4  1  0.55546589  0.20476278  0.06064674  1
  Al  Al5  1  0.11410279  0.09551207  0.87130912  1
  Al  Al6  1  0.21259714  0.21066238  0.63195221  1
  Al  Al7  1  0.77426683  0.09096377  0.31150088  1
  Al  Al8  1  0.89025904  0.20695502  0.12821215  1
  Al  Al9  1  0.45032874  0.08830954  0.81133154  1
  Al  Al10  1  0.56041479  0.20700071  0.56159377  1
  Al  Al11  1  0.10793680  0.42463215  0.37887362  1
  Al  Al12  1  0.22493222  0.54162645  0.06666731  1
  Al  Al13  1  0.77881798  0.43079880  0.87130859  1
  Al  Al14  1  0.89396561  0.52929608  0.63195216  1
  Al  Al15  1  0.44696647  0.42924385  0.31310064  1
  Al  Al16  1  0.54739864  0.54667162  0.05657847  1
  Al  Al17  1  0.10897421  0.42566964  0.88419532  1
  Al  Al18  1  0.22534869  0.54204486  0.56030293  1
  Al  Al19  1  0.78429996  0.41808109  0.38965848  1
  Al  Al20  1  0.88756804  0.53196621  0.13080538  1
  Al  Al21  1  0.44178309  0.43380626  0.81197930  1
  Al  Al22  1  0.55429480  0.53878499  0.57583328  1
  Al  Al23  1  0.11254733  0.76366261  0.31310072  1
  Al  Al24  1  0.22997637  0.86409215  0.05657852  1
  Al  Al25  1  0.77161309  0.76702659  0.81133194  1
  Al  Al26  1  0.89030305  0.87711321  0.56159350  1
  Al  Al27  1  0.44377504  0.76047162  0.31673248  1
  Al  Al28  1  0.55299021  0.86968605  0.05829437  1
  Al  Al29  1  0.11710974  0.75847866  0.81197903  1
  Al  Al30  1  0.22208892  0.87099021  0.57583297  1
  Al  Al31  1  0.77365890  0.76551159  0.31351307  1
  Al  Al32  1  0.88806702  0.87216130  0.06064709  1
  Al  Al33  1  0.55496347  0.87166003  0.56683758  1
  B  B34  1  0.89201524  0.20871193  0.63985830  1
  B  B35  1  0.44374579  0.76044156  0.80914148  1
  N  N36  1  0.21590988  0.20379965  0.32198871  1
  N  N37  1  0.10643586  0.09643423  0.06136374  1
  N  N38  1  0.89487967  0.21157571  0.80164747  1
  N  N39  1  0.78785864  0.10455650  0.61690779  1
  N  N40  1  0.55452138  0.20667990  0.37333792  1
  N  N41  1  0.44837210  0.09024109  0.12028230  1
  N  N42  1  0.21987259  0.21024143  0.82020829  1
  N  N43  1  0.08281788  0.11030313  0.58232496  1
  N  N44  1  0.89043226  0.20712870  0.31673631  1
  N  N45  1  0.77387821  0.09057396  0.12087395  1
  N  N46  1  0.55790617  0.20699124  0.87177450  1
  N  N47  1  0.44981169  0.09333044  0.62066150  1
  N  N48  1  0.22503308  0.54172917  0.36904165  1
  N  N49  1  0.10799462  0.42468926  0.07408914  1
  N  N50  1  0.89354575  0.53657027  0.82020827  1
  N  N51  1  0.79360725  0.39951500  0.58232532  1
  N  N52  1  0.55159998  0.54264946  0.38319875  1
  N  N53  1  0.44748478  0.42761205  0.12343330  1
  N  N54  1  0.22524501  0.54194064  0.87623708  1
  N  N55  1  0.10914920  0.42584587  0.56802013  1
  N  N56  1  0.88710435  0.53260493  0.32198866  1
  N  N57  1  0.77974027  0.42313124  0.06136323  1
  N  N58  1  0.53929459  0.56731649  0.86255086  1
  N  N59  1  0.44279049  0.42692976  0.62565720  1
  N  N60  1  0.22595289  0.86829638  0.38319853  1
  N  N61  1  0.11091637  0.76417921  0.12343336  1
  N  N62  1  0.89029501  0.87460314  0.87177479  1
  N  N63  1  0.77663330  0.76651009  0.62066188  1
  N  N64  1  0.55449364  0.87118931  0.37782149  1
  N  N65  1  0.44406969  0.76076506  0.12856015  1
  N  N66  1  0.25062081  0.85598920  0.86255089  1
  N  N67  1  0.11023255  0.75948706  0.62565689  1
  N  N68  1  0.88998308  0.87121804  0.37333768  1
  N  N69  1  0.77354540  0.76506747  0.12028232  1
  N  N70  1  0.54386535  0.86056185  0.86733043  1
  N  N71  1  0.44547853  0.76217473  0.64583033  1
