# generated using pymatgen
data_Al17BN18
_symmetry_space_group_name_H-M   'P 1'
_cell_length_a   9.35123517
_cell_length_b   9.35123974
_cell_length_c   10.08701689
_cell_angle_alpha   90.09632431
_cell_angle_beta   90.09395363
_cell_angle_gamma   60.12642414
_symmetry_Int_Tables_number   1
_chemical_formula_structural   Al17BN18
_chemical_formula_sum   'Al34 B2 N36'
_cell_volume   764.86115363
_cell_formula_units_Z   2
loop_
 _symmetry_equiv_pos_site_id
 _symmetry_equiv_pos_as_xyz
  1  'x, y, z'
loop_
 _atom_site_type_symbol
 _atom_site_label
 _atom_site_symmetry_multiplicity
 _atom_site_fract_x
 _atom_site_fract_y
 _atom_site_fract_z
 _atom_site_occupancy
  Al  Al0  1  0.10308462  0.10101852  0.39453969  1
  Al  Al1  1  0.22244884  0.20156611  0.13697662  1
  Al  Al2  1  0.77842395  0.09510576  0.81459596  1
  Al  Al3  1  0.43805523  0.09674869  0.39178504  1
  Al  Al4  1  0.55868378  0.20800716  0.06470424  1
  Al  Al5  1  0.11231902  0.09503958  0.87771377  1
  Al  Al6  1  0.21376414  0.21057378  0.63934900  1
  Al  Al7  1  0.77635631  0.09303929  0.33270781  1
  Al  Al8  1  0.89052479  0.20721228  0.13453322  1
  Al  Al9  1  0.43779306  0.09298849  0.87601141  1
  Al  Al10  1  0.56039601  0.21220328  0.57596891  1
  Al  Al11  1  0.10862519  0.42530948  0.38233368  1
  Al  Al12  1  0.22434854  0.54103076  0.07419250  1
  Al  Al13  1  0.77835899  0.42900206  0.87771231  1
  Al  Al14  1  0.89388679  0.53045170  0.63934795  1
  Al  Al15  1  0.44771484  0.42906609  0.31922809  1
  Al  Al16  1  0.54847383  0.54577830  0.06354833  1
  Al  Al17  1  0.10828286  0.42496742  0.89159621  1
  Al  Al18  1  0.22483142  0.54151287  0.56573390  1
  Al  Al19  1  0.78433506  0.41976988  0.39453988  1
  Al  Al20  1  0.88488091  0.53913498  0.13697683  1
  Al  Al21  1  0.44009935  0.43610997  0.81823280  1
  Al  Al22  1  0.55473470  0.53849183  0.58100922  1
  Al  Al23  1  0.11238294  0.76439647  0.31922800  1
  Al  Al24  1  0.22909428  0.86515690  0.06354864  1
  Al  Al25  1  0.77630549  0.75447742  0.87601032  1
  Al  Al26  1  0.89551989  0.87707958  0.57596802  1
  Al  Al27  1  0.44417870  0.76086169  0.32313128  1
  Al  Al28  1  0.54989308  0.86657715  0.06701946  1
  Al  Al29  1  0.11942830  0.75677997  0.81823214  1
  Al  Al30  1  0.22180721  0.87141904  0.58100746  1
  Al  Al31  1  0.78006286  0.75474108  0.39178499  1
  Al  Al32  1  0.89132356  0.87536671  0.06470490  1
  Al  Al33  1  0.55179498  0.86848313  0.58686112  1
  B  B34  1  0.89270614  0.20938918  0.64533095  1
  B  B35  1  0.44344189  0.76012622  0.81468807  1
  N  N36  1  0.22135819  0.20236446  0.32719133  1
  N  N37  1  0.10741796  0.09691144  0.06965493  1
  N  N38  1  0.89461401  0.21129477  0.80769460  1
  N  N39  1  0.78887605  0.10556157  0.62101264  1
  N  N40  1  0.55584030  0.21093606  0.38301453  1
  N  N41  1  0.43903957  0.09574442  0.07394681  1
  N  N42  1  0.21859547  0.20988150  0.82508726  1
  N  N43  1  0.08309646  0.11069671  0.58827936  1
  N  N44  1  0.89177158  0.20845300  0.32403365  1
  N  N45  1  0.77581997  0.09250712  0.12020816  1
  N  N46  1  0.55761828  0.21053537  0.87064741  1
  N  N47  1  0.43788322  0.09913281  0.58970447  1
  N  N48  1  0.22522664  0.54191179  0.37361652  1
  N  N49  1  0.10780063  0.42448273  0.08332900  1
  N  N50  1  0.89320160  0.53527757  0.82508631  1
  N  N51  1  0.79401092  0.39978148  0.58828036  1
  N  N52  1  0.55247092  0.54262532  0.38788700  1
  N  N53  1  0.44740920  0.42798054  0.12915337  1
  N  N54  1  0.22413113  0.54081630  0.88271858  1
  N  N55  1  0.10892016  0.42560246  0.57358327  1
  N  N56  1  0.88568309  0.53804062  0.32719186  1
  N  N57  1  0.78022748  0.42410200  0.06965479  1
  N  N58  1  0.53928137  0.56629228  0.86931383  1
  N  N59  1  0.44068155  0.43114190  0.63188901  1
  N  N60  1  0.22593983  0.86915399  0.38788674  1
  N  N61  1  0.11129403  0.76409453  0.12915378  1
  N  N62  1  0.89385059  0.87430360  0.87064773  1
  N  N63  1  0.78244556  0.75456913  0.58970455  1
  N  N64  1  0.55193473  0.86861919  0.38457436  1
  N  N65  1  0.44312951  0.75981713  0.13507320  1
  N  N66  1  0.24961009  0.85596151  0.86931462  1
  N  N67  1  0.11445576  0.75736759  0.63188832  1
  N  N68  1  0.89424921  0.87252655  0.38301423  1
  N  N69  1  0.77906006  0.75572263  0.07394731  1
  N  N70  1  0.53999957  0.85668202  0.86568824  1
  N  N71  1  0.44279416  0.75948096  0.65231730  1
