# generated using pymatgen
data_Al17BN18
_symmetry_space_group_name_H-M   'P 1'
_cell_length_a   9.32814917
_cell_length_b   9.32814708
_cell_length_c   10.07683754
_cell_angle_alpha   90.16979085
_cell_angle_beta   90.16960056
_cell_angle_gamma   60.28647208
_symmetry_Int_Tables_number   1
_chemical_formula_structural   Al17BN18
_chemical_formula_sum   'Al34 B2 N36'
_cell_volume   761.53462617
_cell_formula_units_Z   2
loop_
 _symmetry_equiv_pos_site_id
 _symmetry_equiv_pos_as_xyz
  1  'x, y, z'
loop_
 _atom_site_type_symbol
 _atom_site_label
 _atom_site_symmetry_multiplicity
 _atom_site_fract_x
 _atom_site_fract_y
 _atom_site_fract_z
 _atom_site_occupancy
  Al  Al0  1  0.10329962  0.10347900  0.40594478  1
  Al  Al1  1  0.22073714  0.20242827  0.14999711  1
  Al  Al2  1  0.77844818  0.09511084  0.89613940  1
  Al  Al3  1  0.44497563  0.09445020  0.40198673  1
  Al  Al4  1  0.56062614  0.19997588  0.14838618  1
  Al  Al5  1  0.11131462  0.09656965  0.88710673  1
  Al  Al6  1  0.21644055  0.20693959  0.65114948  1
  Al  Al7  1  0.78051493  0.09718037  0.40459794  1
  Al  Al8  1  0.88955405  0.20621990  0.14606246  1
  Al  Al9  1  0.44259594  0.08949870  0.90109146  1
  Al  Al10  1  0.56304782  0.19825089  0.65108108  1
  Al  Al11  1  0.11113092  0.42779504  0.39736510  1
  Al  Al12  1  0.22151083  0.53817809  0.13321613  1
  Al  Al13  1  0.77990805  0.42797715  0.88710701  1
  Al  Al14  1  0.89027620  0.53310418  0.65114952  1
  Al  Al15  1  0.45005171  0.43172491  0.33438087  1
  Al  Al16  1  0.54911485  0.54866084  0.07265721  1
  Al  Al17  1  0.11033529  0.42699821  0.90316148  1
  Al  Al18  1  0.21962231  0.53628257  0.63127492  1
  Al  Al19  1  0.78681697  0.41996302  0.40594472  1
  Al  Al20  1  0.88576325  0.53740374  0.14999747  1
  Al  Al21  1  0.44454212  0.43421734  0.83437444  1
  Al  Al22  1  0.55487979  0.53603175  0.59101457  1
  Al  Al23  1  0.11505849  0.76671782  0.33438051  1
  Al  Al24  1  0.23199624  0.86577814  0.07265748  1
  Al  Al25  1  0.77283511  0.75925992  0.90109155  1
  Al  Al26  1  0.88158892  0.87970998  0.65108107  1
  Al  Al27  1  0.44295724  0.75962093  0.33463718  1
  Al  Al28  1  0.55854063  0.87520744  0.15103689  1
  Al  Al29  1  0.11755596  0.76120355  0.83437411  1
  Al  Al30  1  0.21936857  0.87154173  0.59101450  1
  Al  Al31  1  0.77778480  0.76164122  0.40198681  1
  Al  Al32  1  0.88330696  0.87729462  0.14838676  1
  Al  Al33  1  0.55479853  0.87146181  0.65614112  1
  B  B34  1  0.88953864  0.20620162  0.65436499  1
  B  B35  1  0.44155325  0.75821616  0.82242298  1
  N  N36  1  0.22195817  0.20358678  0.34076922  1
  N  N37  1  0.10723616  0.09840613  0.08039427  1
  N  N38  1  0.88789843  0.20456131  0.81770488  1
  N  N39  1  0.78960922  0.10627178  0.59602303  1
  N  N40  1  0.56064803  0.20047288  0.34313745  1
  N  N41  1  0.44308911  0.09483393  0.09038145  1
  N  N42  1  0.22280166  0.20755624  0.83823358  1
  N  N43  1  0.08257785  0.11103770  0.60065472  1
  N  N44  1  0.88926913  0.20593261  0.33482408  1
  N  N45  1  0.77888734  0.09555484  0.08548059  1
  N  N46  1  0.55764753  0.19882036  0.84287569  1
  N  N47  1  0.44288307  0.09175026  0.59185038  1
  N  N48  1  0.22208788  0.53875403  0.35097203  1
  N  N49  1  0.10857205  0.42523723  0.09289197  1
  N  N50  1  0.89089342  0.53946524  0.83823368  1
  N  N51  1  0.79437517  0.39924098  0.60065464  1
  N  N52  1  0.55471242  0.54378410  0.40058773  1
  N  N53  1  0.45109749  0.43032775  0.13642388  1
  N  N54  1  0.22077579  0.53743769  0.86024226  1
  N  N55  1  0.10871658  0.42537958  0.58693969  1
  N  N56  1  0.88692272  0.53862334  0.34076950  1
  N  N57  1  0.78174223  0.42390145  0.08039471  1
  N  N58  1  0.54070619  0.56763404  0.87993797  1
  N  N59  1  0.44557188  0.42626916  0.63958001  1
  N  N60  1  0.22712030  0.87137512  0.40058775  1
  N  N61  1  0.11365951  0.76776471  0.13642394  1
  N  N62  1  0.88215855  0.87431000  0.84287582  1
  N  N63  1  0.77508684  0.75954659  0.59185043  1
  N  N64  1  0.55918459  0.87584970  0.34276968  1
  N  N65  1  0.44248319  0.75914830  0.14553403  1
  N  N66  1  0.25097144  0.85736833  0.87993823  1
  N  N67  1  0.10960731  0.76223270  0.63957995  1
  N  N68  1  0.88380665  0.87731396  0.34313762  1
  N  N69  1  0.77816758  0.75975551  0.09038160  1
  N  N70  1  0.54534297  0.86200640  0.84628959  1
  N  N71  1  0.43827496  0.75493831  0.66021168  1
