# generated using pymatgen
data_Al17BN18
_symmetry_space_group_name_H-M   'P 1'
_cell_length_a   9.33264250
_cell_length_b   9.32571256
_cell_length_c   10.05963215
_cell_angle_alpha   90.16336326
_cell_angle_beta   90.10422724
_cell_angle_gamma   60.26154229
_symmetry_Int_Tables_number   1
_chemical_formula_structural   Al17BN18
_chemical_formula_sum   'Al34 B2 N36'
_cell_volume   760.21445644
_cell_formula_units_Z   2
loop_
 _symmetry_equiv_pos_site_id
 _symmetry_equiv_pos_as_xyz
  1  'x, y, z'
loop_
 _atom_site_type_symbol
 _atom_site_label
 _atom_site_symmetry_multiplicity
 _atom_site_fract_x
 _atom_site_fract_y
 _atom_site_fract_z
 _atom_site_occupancy
  Al  Al0  1  0.10350766  0.10369130  0.40540531  1
  Al  Al1  1  0.22091318  0.20320655  0.14913267  1
  Al  Al2  1  0.77824702  0.09541606  0.89589084  1
  Al  Al3  1  0.44478676  0.09367558  0.40116760  1
  Al  Al4  1  0.55697318  0.20723388  0.14841961  1
  Al  Al5  1  0.11165299  0.09635029  0.88735944  1
  Al  Al6  1  0.21644979  0.20693425  0.65040629  1
  Al  Al7  1  0.78078593  0.09747638  0.40393564  1
  Al  Al8  1  0.88934249  0.20641956  0.14581152  1
  Al  Al9  1  0.44263613  0.08910410  0.90097372  1
  Al  Al10  1  0.56107100  0.20161863  0.65072404  1
  Al  Al11  1  0.11118151  0.42848063  0.39854462  1
  Al  Al12  1  0.22640700  0.53420996  0.14616889  1
  Al  Al13  1  0.78070532  0.42790101  0.88586321  1
  Al  Al14  1  0.89125819  0.53322185  0.65073457  1
  Al  Al15  1  0.44488283  0.42681084  0.39271635  1
  Al  Al16  1  0.55087995  0.54972786  0.07288547  1
  Al  Al17  1  0.11056091  0.42743111  0.90304116  1
  Al  Al18  1  0.22076629  0.53280788  0.64872849  1
  Al  Al19  1  0.78705943  0.42048738  0.40594860  1
  Al  Al20  1  0.88709031  0.53759564  0.14930464  1
  Al  Al21  1  0.44323919  0.42985605  0.87653837  1
  Al  Al22  1  0.55708033  0.53723311  0.59647961  1
  Al  Al23  1  0.11450212  0.76790472  0.33404276  1
  Al  Al24  1  0.23162730  0.86510480  0.07308402  1
  Al  Al25  1  0.77264509  0.75938444  0.90085821  1
  Al  Al26  1  0.88169816  0.87982319  0.64983903  1
  Al  Al27  1  0.44360783  0.75850354  0.33379395  1
  Al  Al28  1  0.55854887  0.87584667  0.15048924  1
  Al  Al29  1  0.11653879  0.76359038  0.83312541  1
  Al  Al30  1  0.21885816  0.87103367  0.59008564  1
  Al  Al31  1  0.77747493  0.76166139  0.40169351  1
  Al  Al32  1  0.88324120  0.87748019  0.14732933  1
  Al  Al33  1  0.55459133  0.87219183  0.65559913  1
  B  B34  1  0.89009506  0.20575162  0.65426892  1
  B  B35  1  0.44189724  0.75813744  0.82132587  1
  N  N36  1  0.22181645  0.20437245  0.34054671  1
  N  N37  1  0.10745905  0.09837039  0.08066709  1
  N  N38  1  0.88857829  0.20389642  0.81783240  1
  N  N39  1  0.78926492  0.10671206  0.59572153  1
  N  N40  1  0.55864067  0.20426943  0.34164711  1
  N  N41  1  0.44365257  0.09525211  0.09054792  1
  N  N42  1  0.22292871  0.20745215  0.83822883  1
  N  N43  1  0.08274259  0.11086858  0.60027261  1
  N  N44  1  0.88955065  0.20616535  0.33476477  1
  N  N45  1  0.77766023  0.09660279  0.08570606  1
  N  N46  1  0.55685074  0.20022667  0.83965573  1
  N  N47  1  0.44298228  0.09158524  0.59124903  1
  N  N48  1  0.22470128  0.53590694  0.34113633  1
  N  N49  1  0.11007033  0.42697146  0.09192332  1
  N  N50  1  0.89162706  0.53963692  0.83819717  1
  N  N51  1  0.79536868  0.39895882  0.60159974  1
  N  N52  1  0.55691512  0.54553583  0.40091618  1
  N  N53  1  0.44604282  0.42674907  0.09286047  1
  N  N54  1  0.22030950  0.53453840  0.84202540  1
  N  N55  1  0.10951904  0.42629415  0.58697525  1
  N  N56  1  0.88806866  0.53860954  0.34060785  1
  N  N57  1  0.78239779  0.42431813  0.08006700  1
  N  N58  1  0.54225184  0.56793895  0.87549824  1
  N  N59  1  0.44244721  0.42270659  0.60479495  1
  N  N60  1  0.22746114  0.87121086  0.39947557  1
  N  N61  1  0.11372896  0.76632845  0.13544789  1
  N  N62  1  0.88184748  0.87453911  0.84274690  1
  N  N63  1  0.77476885  0.75958230  0.59165004  1
  N  N64  1  0.55930883  0.87574665  0.34215663  1
  N  N65  1  0.44261064  0.75915362  0.14488690  1
  N  N66  1  0.25128967  0.85653439  0.88023827  1
  N  N67  1  0.10921615  0.76200064  0.63767787  1
  N  N68  1  0.88345428  0.87751108  0.34292220  1
  N  N69  1  0.77802083  0.75990277  0.09010726  1
  N  N70  1  0.54553288  0.86226021  0.84606281  1
  N  N71  1  0.43704392  0.75673174  0.66010605  1
