# generated using pymatgen
data_Al17BN18
_symmetry_space_group_name_H-M   'P 1'
_cell_length_a   9.31262346
_cell_length_b   9.32406491
_cell_length_c   10.14318281
_cell_angle_alpha   90.10075652
_cell_angle_beta   90.02678389
_cell_angle_gamma   60.16143922
_symmetry_Int_Tables_number   1
_chemical_formula_structural   Al17BN18
_chemical_formula_sum   'Al34 B2 N36'
_cell_volume   763.98652203
_cell_formula_units_Z   2
loop_
 _symmetry_equiv_pos_site_id
 _symmetry_equiv_pos_as_xyz
  1  'x, y, z'
loop_
 _atom_site_type_symbol
 _atom_site_label
 _atom_site_symmetry_multiplicity
 _atom_site_fract_x
 _atom_site_fract_y
 _atom_site_fract_z
 _atom_site_occupancy
  Al  Al0  1  0.10111294  0.10068167  0.39585473  1
  Al  Al1  1  0.22364036  0.19999207  0.13807458  1
  Al  Al2  1  0.77867447  0.09584445  0.81222754  1
  Al  Al3  1  0.43771862  0.09583143  0.39200979  1
  Al  Al4  1  0.55875569  0.20806906  0.06688100  1
  Al  Al5  1  0.11354656  0.09580792  0.87813832  1
  Al  Al6  1  0.21607364  0.20989275  0.64016418  1
  Al  Al7  1  0.77385507  0.08987075  0.31739281  1
  Al  Al8  1  0.89153880  0.20676707  0.13517692  1
  Al  Al9  1  0.43951184  0.09375562  0.88022630  1
  Al  Al10  1  0.56336186  0.21148387  0.57085264  1
  Al  Al11  1  0.10813743  0.42422497  0.38488978  1
  Al  Al12  1  0.22435449  0.54149156  0.07398623  1
  Al  Al13  1  0.77849283  0.43099873  0.87858965  1
  Al  Al14  1  0.89448740  0.52882965  0.63902169  1
  Al  Al15  1  0.44701502  0.42884608  0.31952407  1
  Al  Al16  1  0.54721390  0.54644345  0.06351659  1
  Al  Al17  1  0.10820857  0.42599877  0.89188822  1
  Al  Al18  1  0.22439624  0.54241538  0.56682231  1
  Al  Al19  1  0.78411129  0.41701565  0.39628377  1
  Al  Al20  1  0.88830522  0.53149823  0.13826647  1
  Al  Al21  1  0.44126906  0.43524434  0.81839456  1
  Al  Al22  1  0.55385442  0.53937414  0.58171787  1
  Al  Al23  1  0.11241901  0.76350380  0.31990537  1
  Al  Al24  1  0.22933164  0.86488849  0.06359584  1
  Al  Al25  1  0.77196172  0.76696829  0.81916771  1
  Al  Al26  1  0.89086377  0.87771614  0.56959528  1
  Al  Al27  1  0.44402964  0.75981296  0.32380667  1
  Al  Al28  1  0.55660066  0.86214996  0.06523932  1
  Al  Al29  1  0.11752288  0.75850020  0.81908020  1
  Al  Al30  1  0.22134596  0.87183220  0.58254637  1
  Al  Al31  1  0.77389591  0.76402103  0.32562501  1
  Al  Al32  1  0.88819831  0.87180887  0.06692627  1
  Al  Al33  1  0.55578050  0.86707571  0.58065416  1
  B  B34  1  0.89348481  0.20942767  0.64669064  1
  B  B35  1  0.44447085  0.75971948  0.81594043  1
  N  N36  1  0.22115507  0.20078839  0.32723014  1
  N  N37  1  0.10725000  0.09698577  0.06884318  1
  N  N38  1  0.89569110  0.21229281  0.80826686  1
  N  N39  1  0.78914028  0.10463168  0.62389001  1
  N  N40  1  0.55709943  0.20896525  0.37977954  1
  N  N41  1  0.44037128  0.09395317  0.07482936  1
  N  N42  1  0.22145236  0.20980861  0.82507284  1
  N  N43  1  0.08312182  0.11138219  0.58898471  1
  N  N44  1  0.89088052  0.20620845  0.32335809  1
  N  N45  1  0.77479724  0.08988071  0.12763431  1
  N  N46  1  0.56063991  0.21131381  0.87545578  1
  N  N47  1  0.43864715  0.09935997  0.58650303  1
  N  N48  1  0.22479511  0.54150040  0.37543158  1
  N  N49  1  0.10896374  0.42318330  0.08237753  1
  N  N50  1  0.89373013  0.53616889  0.82728715  1
  N  N51  1  0.79329460  0.39991233  0.58900003  1
  N  N52  1  0.55153800  0.54196171  0.38948596  1
  N  N53  1  0.44703044  0.42828093  0.13049055  1
  N  N54  1  0.22457578  0.54202805  0.88339999  1
  N  N55  1  0.10887415  0.42572412  0.57450307  1
  N  N56  1  0.88771176  0.53112533  0.32935141  1
  N  N57  1  0.77956408  0.42309440  0.06883446  1
  N  N58  1  0.53901533  0.56723095  0.86990461  1
  N  N59  1  0.44147983  0.42946538  0.63253224  1
  N  N60  1  0.22572699  0.86834844  0.38991387  1
  N  N61  1  0.11078658  0.76427805  0.13024258  1
  N  N62  1  0.89016207  0.87563432  0.87798571  1
  N  N63  1  0.77768681  0.76653360  0.62842217  1
  N  N64  1  0.55695930  0.86419758  0.38759233  1
  N  N65  1  0.44350430  0.76024435  0.13591929  1
  N  N66  1  0.25020190  0.85645281  0.86983232  1
  N  N67  1  0.11063594  0.75959521  0.63266331  1
  N  N68  1  0.89018362  0.87110901  0.38131985  1
  N  N69  1  0.77478921  0.76369521  0.12619695  1
  N  N70  1  0.54511215  0.85519625  0.87071906  1
  N  N71  1  0.44396830  0.76102960  0.65348265  1
