# generated using pymatgen
data_Al17BN18
_symmetry_space_group_name_H-M   'P 1'
_cell_length_a   9.29964185
_cell_length_b   9.29964195
_cell_length_c   9.93925558
_cell_angle_alpha   89.99397296
_cell_angle_beta   89.99396496
_cell_angle_gamma   60.00210792
_symmetry_Int_Tables_number   1
_chemical_formula_structural   Al17BN18
_chemical_formula_sum   'Al34 B2 N36'
_cell_volume   744.43393610
_cell_formula_units_Z   2
loop_
 _symmetry_equiv_pos_site_id
 _symmetry_equiv_pos_as_xyz
  1  'x, y, z'
loop_
 _atom_site_type_symbol
 _atom_site_label
 _atom_site_symmetry_multiplicity
 _atom_site_fract_x
 _atom_site_fract_y
 _atom_site_fract_z
 _atom_site_occupancy
  Al  Al0  1  0.10661666  0.09534040  0.41325400  1
  Al  Al1  1  0.22118449  0.20464471  0.15952153  1
  Al  Al2  1  0.77898002  0.09564496  0.90371559  1
  Al  Al3  1  0.44526001  0.09241706  0.40916120  1
  Al  Al4  1  0.55693651  0.20495138  0.15901332  1
  Al  Al5  1  0.11400371  0.09194822  0.90297576  1
  Al  Al6  1  0.21711367  0.20693526  0.65925454  1
  Al  Al7  1  0.78056806  0.09723347  0.41361614  1
  Al  Al8  1  0.88899886  0.20566475  0.15744060  1
  Al  Al9  1  0.44260374  0.09134578  0.90928085  1
  Al  Al10  1  0.55921584  0.20715255  0.65947826  1
  Al  Al11  1  0.11092817  0.42759360  0.40915309  1
  Al  Al12  1  0.22220770  0.53887335  0.15976050  1
  Al  Al13  1  0.77528216  0.43066944  0.90297571  1
  Al  Al14  1  0.89026902  0.53377974  0.65925451  1
  Al  Al15  1  0.44543104  0.42864417  0.40884768  1
  Al  Al16  1  0.55597160  0.54044968  0.15229736  1
  Al  Al17  1  0.11111783  0.42778285  0.91010420  1
  Al  Al18  1  0.22230586  0.53897236  0.65938166  1
  Al  Al19  1  0.77867444  0.42328309  0.41325396  1
  Al  Al20  1  0.88797918  0.53785050  0.15952164  1
  Al  Al21  1  0.44293703  0.43293128  0.90971942  1
  Al  Al22  1  0.55591066  0.53966729  0.66342037  1
  Al  Al23  1  0.11197817  0.76209718  0.40884770  1
  Al  Al24  1  0.22378493  0.87263630  0.15229706  1
  Al  Al25  1  0.77467988  0.75926915  0.90928070  1
  Al  Al26  1  0.89048561  0.87588283  0.65947815  1
  Al  Al27  1  0.44448000  0.76114662  0.40732814  1
  Al  Al28  1  0.55425019  0.87091525  0.15265246  1
  Al  Al29  1  0.11626503  0.75960291  0.90971939  1
  Al  Al30  1  0.22300208  0.87257585  0.66342062  1
  Al  Al31  1  0.77575029  0.76192677  0.40916127  1
  Al  Al32  1  0.88828578  0.87360219  0.15901330  1
  Al  Al33  1  0.55277448  0.86944047  0.66413415  1
  B  B34  1  0.88831559  0.20498121  0.66377470  1
  B  B35  1  0.44438933  0.76105483  0.91249972  1
  N  N36  1  0.22130144  0.20382788  0.35227754  1
  N  N37  1  0.10923611  0.09578287  0.09465897  1
  N  N38  1  0.88902237  0.20568793  0.82925437  1
  N  N39  1  0.79034869  0.10701518  0.60761425  1
  N  N40  1  0.55758437  0.20439180  0.35221435  1
  N  N41  1  0.44373326  0.09533571  0.10016701  1
  N  N42  1  0.22199586  0.20669492  0.84913014  1
  N  N43  1  0.08718692  0.10458025  0.60893317  1
  N  N44  1  0.88910780  0.20577404  0.34682007  1
  N  N45  1  0.77857762  0.09524313  0.09595022  1
  N  N46  1  0.55444293  0.20636338  0.85020372  1
  N  N47  1  0.44542167  0.09262837  0.60209349  1
  N  N48  1  0.22236851  0.53903449  0.35071400  1
  N  N49  1  0.11086571  0.42753119  0.10156551  1
  N  N50  1  0.89002950  0.53866115  0.84913018  1
  N  N51  1  0.78791472  0.40385255  0.60893312  1
  N  N52  1  0.55702403  0.53945029  0.34645236  1
  N  N53  1  0.44432607  0.42755464  0.10030642  1
  N  N54  1  0.22196573  0.53863147  0.85012229  1
  N  N55  1  0.11139819  0.42806431  0.59941052  1
  N  N56  1  0.88716205  0.53796778  0.35227768  1
  N  N57  1  0.77911770  0.42590168  0.09465890  1
  N  N58  1  0.54275591  0.56401643  0.85653074  1
  N  N59  1  0.44511049  0.42925877  0.60090117  1
  N  N60  1  0.22278411  0.87369001  0.34645216  1
  N  N61  1  0.11088903  0.76099155  0.10030637  1
  N  N62  1  0.88969746  0.87110835  0.85020352  1
  N  N63  1  0.77596220  0.76208784  0.60209350  1
  N  N64  1  0.55464658  0.87131302  0.34512994  1
  N  N65  1  0.44425133  0.76091613  0.07865342  1
  N  N66  1  0.24735070  0.85942160  0.85653098  1
  N  N67  1  0.11259232  0.76177690  0.60090128  1
  N  N68  1  0.88772599  0.87425010  0.35221430  1
  N  N69  1  0.77867036  0.76039887  0.10016684  1
  N  N70  1  0.54301838  0.85968411  0.85779068  1
  N  N71  1  0.44410709  0.76077258  0.59669763  1
