# generated using pymatgen
data_Al17BN18
_symmetry_space_group_name_H-M   'P 1'
_cell_length_a   9.33362791
_cell_length_b   9.32739475
_cell_length_c   10.05918425
_cell_angle_alpha   90.17024281
_cell_angle_beta   90.11249496
_cell_angle_gamma   60.27026787
_symmetry_Int_Tables_number   1
_chemical_formula_structural   Al17BN18
_chemical_formula_sum   'Al34 B2 N36'
_cell_volume   760.46385229
_cell_formula_units_Z   2
loop_
 _symmetry_equiv_pos_site_id
 _symmetry_equiv_pos_as_xyz
  1  'x, y, z'
loop_
 _atom_site_type_symbol
 _atom_site_label
 _atom_site_symmetry_multiplicity
 _atom_site_fract_x
 _atom_site_fract_y
 _atom_site_fract_z
 _atom_site_occupancy
  Al  Al0  1  0.10349736  0.10370638  0.40542592  1
  Al  Al1  1  0.22090920  0.20319878  0.14915923  1
  Al  Al2  1  0.77834186  0.09532647  0.89604648  1
  Al  Al3  1  0.44471449  0.09357707  0.40133123  1
  Al  Al4  1  0.55732076  0.20656045  0.14820111  1
  Al  Al5  1  0.11164075  0.09638868  0.88739443  1
  Al  Al6  1  0.21644318  0.20692560  0.65049690  1
  Al  Al7  1  0.78098964  0.09729224  0.40409586  1
  Al  Al8  1  0.88927865  0.20649586  0.14577321  1
  Al  Al9  1  0.44260571  0.08911370  0.90111836  1
  Al  Al10  1  0.56156365  0.20078642  0.65058944  1
  Al  Al11  1  0.11107148  0.42841755  0.39869945  1
  Al  Al12  1  0.22584597  0.53453396  0.14589025  1
  Al  Al13  1  0.78080126  0.42788863  0.88611072  1
  Al  Al14  1  0.89114571  0.53321122  0.65079230  1
  Al  Al15  1  0.44576180  0.42736843  0.38472102  1
  Al  Al16  1  0.55033456  0.54921753  0.07270399  1
  Al  Al17  1  0.11057745  0.42741628  0.90319960  1
  Al  Al18  1  0.22003505  0.53328614  0.64846535  1
  Al  Al19  1  0.78723732  0.42036434  0.40605515  1
  Al  Al20  1  0.88692947  0.53757272  0.14928491  1
  Al  Al21  1  0.44411541  0.43042397  0.86743696  1
  Al  Al22  1  0.55680967  0.53709218  0.59602232  1
  Al  Al23  1  0.11428835  0.76814944  0.33412634  1
  Al  Al24  1  0.23171816  0.86507111  0.07311721  1
  Al  Al25  1  0.77265280  0.75936740  0.90087865  1
  Al  Al26  1  0.88171140  0.87980526  0.64992010  1
  Al  Al27  1  0.44348266  0.75874179  0.33369852  1
  Al  Al28  1  0.55854660  0.87570548  0.15044194  1
  Al  Al29  1  0.11637972  0.76373718  0.83332420  1
  Al  Al30  1  0.21891492  0.87102986  0.59015718  1
  Al  Al31  1  0.77749002  0.76166420  0.40170940  1
  Al  Al32  1  0.88325487  0.87745353  0.14734874  1
  Al  Al33  1  0.55460468  0.87211786  0.65563539  1
  B  B34  1  0.89007474  0.20578098  0.65427467  1
  B  B35  1  0.44187818  0.75833483  0.82136080  1
  N  N36  1  0.22181970  0.20439729  0.34060415  1
  N  N37  1  0.10745046  0.09835344  0.08069696  1
  N  N38  1  0.88849917  0.20397307  0.81782154  1
  N  N39  1  0.78943269  0.10657889  0.59572341  1
  N  N40  1  0.55912512  0.20328237  0.34208550  1
  N  N41  1  0.44361232  0.09509681  0.09061850  1
  N  N42  1  0.22293461  0.20748587  0.83828166  1
  N  N43  1  0.08274299  0.11087772  0.60028176  1
  N  N44  1  0.88947878  0.20618510  0.33479044  1
  N  N45  1  0.77788122  0.09640009  0.08574864  1
  N  N46  1  0.55726981  0.19940318  0.84005126  1
  N  N47  1  0.44293159  0.09153454  0.59130431  1
  N  N48  1  0.22372482  0.53650443  0.34179783  1
  N  N49  1  0.10991705  0.42690164  0.09203431  1
  N  N50  1  0.89158987  0.53963148  0.83822245  1
  N  N51  1  0.79531966  0.39901253  0.60146842  1
  N  N52  1  0.55670142  0.54549349  0.40113989  1
  N  N53  1  0.44667867  0.42718738  0.09930466  1
  N  N54  1  0.21961965  0.53507748  0.84275502  1
  N  N55  1  0.10945286  0.42620780  0.58705306  1
  N  N56  1  0.88794680  0.53861529  0.34065266  1
  N  N57  1  0.78231521  0.42432614  0.08003293  1
  N  N58  1  0.54223302  0.56806655  0.87586669  1
  N  N59  1  0.44311620  0.42327249  0.61156811  1
  N  N60  1  0.22745748  0.87125864  0.39950774  1
  N  N61  1  0.11362239  0.76649229  0.13551889  1
  N  N62  1  0.88181839  0.87455368  0.84276707  1
  N  N63  1  0.77478026  0.75958555  0.59167865  1
  N  N64  1  0.55931409  0.87568522  0.34223136  1
  N  N65  1  0.44270552  0.75906591  0.14484531  1
  N  N66  1  0.25127379  0.85662537  0.88021022  1
  N  N67  1  0.10911307  0.76217674  0.63772205  1
  N  N68  1  0.88340888  0.87752111  0.34295100  1
  N  N69  1  0.77803701  0.75989084  0.09014253  1
  N  N70  1  0.54549027  0.86223332  0.84610074  1
  N  N71  1  0.43715121  0.75666675  0.66004868  1
