# generated using pymatgen
data_Al17BN18
_symmetry_space_group_name_H-M   'P 1'
_cell_length_a   9.29956941
_cell_length_b   9.29958501
_cell_length_c   9.93944130
_cell_angle_alpha   89.99467533
_cell_angle_beta   89.99214978
_cell_angle_gamma   60.00223066
_symmetry_Int_Tables_number   1
_chemical_formula_structural   Al17BN18
_chemical_formula_sum   'Al34 B2 N36'
_cell_volume   744.43840765
_cell_formula_units_Z   2
loop_
 _symmetry_equiv_pos_site_id
 _symmetry_equiv_pos_as_xyz
  1  'x, y, z'
loop_
 _atom_site_type_symbol
 _atom_site_label
 _atom_site_symmetry_multiplicity
 _atom_site_fract_x
 _atom_site_fract_y
 _atom_site_fract_z
 _atom_site_occupancy
  Al  Al0  1  0.10661826  0.09535127  0.40297069  1
  Al  Al1  1  0.22118880  0.20464514  0.14924196  1
  Al  Al2  1  0.77898028  0.09564973  0.89343907  1
  Al  Al3  1  0.44526162  0.09242817  0.39888856  1
  Al  Al4  1  0.55693927  0.20495459  0.14873528  1
  Al  Al5  1  0.11400790  0.09194302  0.89269057  1
  Al  Al6  1  0.21711321  0.20694113  0.64898374  1
  Al  Al7  1  0.78057220  0.09723749  0.40333341  1
  Al  Al8  1  0.88900299  0.20566860  0.14715594  1
  Al  Al9  1  0.44260488  0.09134066  0.89900529  1
  Al  Al10  1  0.55921900  0.20715411  0.64920983  1
  Al  Al11  1  0.11093163  0.42759825  0.39887873  1
  Al  Al12  1  0.22221189  0.53887793  0.14948461  1
  Al  Al13  1  0.77527545  0.43067640  0.89269264  1
  Al  Al14  1  0.89027126  0.53378331  0.64898504  1
  Al  Al15  1  0.44543226  0.42864364  0.39857675  1
  Al  Al16  1  0.55597334  0.54045345  0.14202721  1
  Al  Al17  1  0.11111623  0.42778589  0.89983582  1
  Al  Al18  1  0.22230455  0.53897390  0.64911401  1
  Al  Al19  1  0.77868413  0.42328471  0.40297423  1
  Al  Al20  1  0.88797829  0.53785602  0.14924467  1
  Al  Al21  1  0.44293809  0.43293856  0.89944316  1
  Al  Al22  1  0.55591239  0.53966882  0.65312242  1
  Al  Al23  1  0.11197900  0.76209875  0.39857395  1
  Al  Al24  1  0.22379107  0.87263776  0.14202488  1
  Al  Al25  1  0.77467288  0.75927483  0.89900519  1
  Al  Al26  1  0.89048660  0.87588904  0.64920925  1
  Al  Al27  1  0.44448644  0.76114926  0.39703884  1
  Al  Al28  1  0.55425257  0.87091727  0.14238561  1
  Al  Al29  1  0.11627071  0.75960827  0.89944104  1
  Al  Al30  1  0.22300300  0.87257924  0.65311738  1
  Al  Al31  1  0.77576159  0.76192997  0.39889032  1
  Al  Al32  1  0.88829012  0.87360506  0.14873381  1
  Al  Al33  1  0.55277570  0.86944401  0.65383806  1
  B  B34  1  0.88831873  0.20498399  0.65349103  1
  B  B35  1  0.44439308  0.76105525  0.90219079  1
  N  N36  1  0.22130822  0.20383275  0.34199500  1
  N  N37  1  0.10924431  0.09577876  0.08437378  1
  N  N38  1  0.88902327  0.20569106  0.81897106  1
  N  N39  1  0.79035190  0.10701738  0.59733237  1
  N  N40  1  0.55758999  0.20439508  0.34193283  1
  N  N41  1  0.44374116  0.09533192  0.08988806  1
  N  N42  1  0.22199731  0.20669699  0.83885506  1
  N  N43  1  0.08718799  0.10458763  0.59864671  1
  N  N44  1  0.88911430  0.20577742  0.33653396  1
  N  N45  1  0.77858262  0.09524499  0.08566990  1
  N  N46  1  0.55444382  0.20636430  0.83993044  1
  N  N47  1  0.44542176  0.09263647  0.59181551  1
  N  N48  1  0.22237455  0.53903684  0.34043522  1
  N  N49  1  0.11086956  0.42753320  0.09129126  1
  N  N50  1  0.89003098  0.53866394  0.83885615  1
  N  N51  1  0.78792186  0.40385393  0.59864976  1
  N  N52  1  0.55703284  0.53944495  0.33617936  1
  N  N53  1  0.44433262  0.42755716  0.09002683  1
  N  N54  1  0.22196665  0.53863245  0.83984964  1
  N  N55  1  0.11140038  0.42806603  0.58913441  1
  N  N56  1  0.88716813  0.53797236  0.34199815  1
  N  N57  1  0.77911774  0.42590583  0.08437524  1
  N  N58  1  0.54275403  0.56402364  0.84623168  1
  N  N59  1  0.44510981  0.42925566  0.59062489  1
  N  N60  1  0.22278606  0.87369458  0.33617800  1
  N  N61  1  0.11089678  0.76099444  0.09002563  1
  N  N62  1  0.88969945  0.87111071  0.83992976  1
  N  N63  1  0.77597223  0.76208860  0.59181717  1
  N  N64  1  0.55465779  0.87131958  0.33486027  1
  N  N65  1  0.44425659  0.76091698  0.06837741  1
  N  N66  1  0.24735773  0.85942005  0.84622744  1
  N  N67  1  0.11259199  0.76177410  0.59062212  1
  N  N68  1  0.88773336  0.87425275  0.34193176  1
  N  N69  1  0.77867070  0.76040327  0.08988806  1
  N  N70  1  0.54301737  0.85968218  0.84749312  1
  N  N71  1  0.44411299  0.76077216  0.58640049  1
