# generated using pymatgen
data_Al17BN18
_symmetry_space_group_name_H-M   'P 1'
_cell_length_a   9.29963358
_cell_length_b   9.29963338
_cell_length_c   9.93926850
_cell_angle_alpha   89.99394701
_cell_angle_beta   89.99395857
_cell_angle_gamma   60.00211733
_symmetry_Int_Tables_number   1
_chemical_formula_structural   Al17BN18
_chemical_formula_sum   'Al34 B2 N36'
_cell_volume   744.43362575
_cell_formula_units_Z   2
loop_
 _symmetry_equiv_pos_site_id
 _symmetry_equiv_pos_as_xyz
  1  'x, y, z'
loop_
 _atom_site_type_symbol
 _atom_site_label
 _atom_site_symmetry_multiplicity
 _atom_site_fract_x
 _atom_site_fract_y
 _atom_site_fract_z
 _atom_site_occupancy
  Al  Al0  1  0.10951898  0.09400890  0.30879957  1
  Al  Al1  1  0.22132538  0.20454890  0.05224249  1
  Al  Al2  1  0.78052985  0.09720519  0.79696289  1
  Al  Al3  1  0.44501802  0.09304391  0.30207736  1
  Al  Al4  1  0.55755316  0.20471989  0.05192896  1
  Al  Al5  1  0.11030235  0.09406907  0.79767988  1
  Al  Al6  1  0.21703819  0.20704314  0.55137112  1
  Al  Al7  1  0.77905444  0.09573006  0.30844177  1
  Al  Al8  1  0.88882333  0.20549984  0.05377132  1
  Al  Al9  1  0.44281771  0.09076308  0.80161262  1
  Al  Al10  1  0.55862365  0.20737687  0.55180958  1
  Al  Al11  1  0.11109637  0.42777237  0.30132738  1
  Al  Al12  1  0.22237594  0.53905223  0.05193410  1
  Al  Al13  1  0.77739304  0.42697786  0.79767966  1
  Al  Al14  1  0.89036644  0.53371442  0.55137099  1
  Al  Al15  1  0.44532426  0.42879569  0.30156937  1
  Al  Al16  1  0.55462906  0.54336292  0.04784632  1
  Al  Al17  1  0.11099832  0.42767359  0.80170543  1
  Al  Al18  1  0.22218621  0.53886341  0.55098439  1
  Al  Al19  1  0.77733235  0.42619541  0.30879967  1
  Al  Al20  1  0.88787268  0.53800196  0.05224249  1
  Al  Al21  1  0.44303514  0.43286703  0.80183568  1
  Al  Al22  1  0.55802189  0.53597654  0.55812144  1
  Al  Al23  1  0.11211917  0.76200095  0.30156953  1
  Al  Al24  1  0.22668711  0.87130455  0.04784626  1
  Al  Al25  1  0.77408702  0.75949325  0.80161267  1
  Al  Al26  1  0.89069929  0.87530106  0.55180957  1
  Al  Al27  1  0.44430479  0.76098185  0.30365945  1
  Al  Al28  1  0.55273594  0.86941215  0.04748183  1
  Al  Al29  1  0.11619025  0.75971152  0.80183553  1
  Al  Al30  1  0.21929935  0.87469919  0.55812160  1
  Al  Al31  1  0.77636674  0.76169496  0.30207733  1
  Al  Al32  1  0.88804358  0.87422953  0.05192903  1
  Al  Al33  1  0.55432436  0.87100020  0.55738183  1
  B  B34  1  0.88891402  0.20559063  0.54859932  1
  B  B35  1  0.44498846  0.76166455  0.79732466  1
  N  N36  1  0.22241483  0.20565461  0.36078565  1
  N  N37  1  0.11052019  0.09295608  0.11464516  1
  N  N38  1  0.88919703  0.20587260  0.86440220  1
  N  N39  1  0.79028495  0.10696189  0.60330583  1
  N  N40  1  0.55463358  0.20624706  0.36092506  1
  N  N41  1  0.44557748  0.09239670  0.10887835  1
  N  N42  1  0.22071161  0.20487015  0.86019113  1
  N  N43  1  0.08595291  0.10722481  0.60456832  1
  N  N44  1  0.88905282  0.20572910  0.38244414  1
  N  N45  1  0.77865633  0.09533253  0.11596483  1
  N  N46  1  0.55734082  0.20455868  0.85899890  1
  N  N47  1  0.44360580  0.09553797  0.61088892  1
  N  N48  1  0.22243798  0.53911451  0.35952519  1
  N  N49  1  0.11093561  0.42761170  0.11037568  1
  N  N50  1  0.88819451  0.53738701  0.86019105  1
  N  N51  1  0.79054793  0.40262940  0.60456812  1
  N  N52  1  0.55418601  0.54074344  0.36643838  1
  N  N53  1  0.44614069  0.42867794  0.10881534  1
  N  N54  1  0.22190555  0.53858179  0.86167847  1
  N  N55  1  0.11133825  0.42801477  0.61096696  1
  N  N56  1  0.88897821  0.53909131  0.36078545  1
  N  N57  1  0.77628022  0.42719636  0.11464530  1
  N  N58  1  0.54538881  0.56279329  0.85216642  1
  N  N59  1  0.44327368  0.42798460  0.61196164  1
  N  N60  1  0.22406669  0.87086275  0.36643852  1
  N  N61  1  0.11200167  0.76281686  0.10881544  1
  N  N62  1  0.88788241  0.87401656  0.85899904  1
  N  N63  1  0.77886181  0.76028184  0.61088900  1
  N  N64  1  0.55472680  0.87140364  0.36514669  1
  N  N65  1  0.44419612  0.76087201  0.11428009  1
  N  N66  1  0.24611724  0.86206468  0.85216638  1
  N  N67  1  0.11130735  0.75995088  0.61196154  1
  N  N68  1  0.88957063  0.87130969  0.36092515  1
  N  N69  1  0.77572039  0.76225391  0.10887836  1
  N  N70  1  0.54295485  0.85963081  0.85348283  1
  N  N71  1  0.44428113  0.76095775  0.63184389  1
