# generated using pymatgen
data_Al17BN18
_symmetry_space_group_name_H-M   'P 1'
_cell_length_a   9.29964348
_cell_length_b   9.29964323
_cell_length_c   9.93925295
_cell_angle_alpha   89.99394669
_cell_angle_beta   89.99395759
_cell_angle_gamma   60.00210088
_symmetry_Int_Tables_number   1
_chemical_formula_structural   Al17BN18
_chemical_formula_sum   'Al34 B2 N36'
_cell_volume   744.43391800
_cell_formula_units_Z   2
loop_
 _symmetry_equiv_pos_site_id
 _symmetry_equiv_pos_as_xyz
  1  'x, y, z'
loop_
 _atom_site_type_symbol
 _atom_site_label
 _atom_site_symmetry_multiplicity
 _atom_site_fract_x
 _atom_site_fract_y
 _atom_site_fract_z
 _atom_site_occupancy
  Al  Al0  1  0.10952428  0.09400943  0.30542207  1
  Al  Al1  1  0.22133081  0.20454936  0.04887288  1
  Al  Al2  1  0.78053513  0.09720556  0.79358688  1
  Al  Al3  1  0.44502321  0.09304491  0.29870697  1
  Al  Al4  1  0.55755843  0.20472028  0.04855876  1
  Al  Al5  1  0.11030750  0.09407004  0.79430003  1
  Al  Al6  1  0.21704386  0.20704389  0.54800096  1
  Al  Al7  1  0.77905958  0.09573033  0.30506709  1
  Al  Al8  1  0.88882879  0.20550040  0.05039280  1
  Al  Al9  1  0.44282298  0.09076354  0.79824243  1
  Al  Al10  1  0.55862854  0.20737735  0.54844024  1
  Al  Al11  1  0.11110159  0.42777274  0.29795986  1
  Al  Al12  1  0.22238131  0.53905271  0.04856780  1
  Al  Al13  1  0.77739887  0.42697812  0.79429983  1
  Al  Al14  1  0.89037205  0.53371525  0.54800088  1
  Al  Al15  1  0.44532987  0.42879569  0.29819848  1
  Al  Al16  1  0.55463465  0.54336343  0.04446656  1
  Al  Al17  1  0.11100375  0.42767414  0.79833897  1
  Al  Al18  1  0.22219149  0.53886379  0.54761580  1
  Al  Al19  1  0.77733769  0.42619589  0.30542224  1
  Al  Al20  1  0.88787797  0.53800252  0.04887288  1
  Al  Al21  1  0.44304009  0.43286731  0.79846618  1
  Al  Al22  1  0.55802650  0.53597710  0.55474350  1
  Al  Al23  1  0.11212406  0.76200166  0.29819862  1
  Al  Al24  1  0.22669252  0.87130523  0.04446649  1
  Al  Al25  1  0.77409236  0.75949362  0.79824250  1
  Al  Al26  1  0.89070470  0.87530102  0.54844023  1
  Al  Al27  1  0.44430980  0.76098202  0.30028034  1
  Al  Al28  1  0.55274131  0.86941271  0.04410479  1
  Al  Al29  1  0.11619545  0.75971155  0.79846603  1
  Al  Al30  1  0.21930471  0.87469899  0.55474360  1
  Al  Al31  1  0.77637261  0.76169527  0.29870697  1
  Al  Al32  1  0.88804881  0.87422995  0.04855884  1
  Al  Al33  1  0.55432979  0.87100076  0.55400380  1
  B  B34  1  0.88891964  0.20559142  0.54522079  1
  B  B35  1  0.44499361  0.76166490  0.79394572  1
  N  N36  1  0.22241998  0.20565433  0.35741368  1
  N  N37  1  0.11052509  0.09295605  0.11126751  1
  N  N38  1  0.88920253  0.20587323  0.86102326  1
  N  N39  1  0.79029035  0.10696238  0.59993021  1
  N  N40  1  0.55463921  0.20624729  0.35755358  1
  N  N41  1  0.44558322  0.09239653  0.10550592  1
  N  N42  1  0.22071657  0.20486957  0.85681925  1
  N  N43  1  0.08595822  0.10722499  0.60118951  1
  N  N44  1  0.88905809  0.20572951  0.37906643  1
  N  N45  1  0.77866227  0.09533363  0.11258980  1
  N  N46  1  0.55734683  0.20455865  0.85562660  1
  N  N47  1  0.44361149  0.09553744  0.60751672  1
  N  N48  1  0.22244348  0.53911512  0.35615442  1
  N  N49  1  0.11094068  0.42761196  0.10700634  1
  N  N50  1  0.88819881  0.53738707  0.85681917  1
  N  N51  1  0.79055295  0.40262988  0.60118929  1
  N  N52  1  0.55419140  0.54074446  0.36306054  1
  N  N53  1  0.44614725  0.42867862  0.10544262  1
  N  N54  1  0.22191107  0.53858238  0.85831021  1
  N  N55  1  0.11134354  0.42801522  0.60759795  1
  N  N56  1  0.88898278  0.53909161  0.35741351  1
  N  N57  1  0.77628506  0.42719638  0.11126768  1
  N  N58  1  0.54539477  0.56279367  0.84878755  1
  N  N59  1  0.44327938  0.42798552  0.60859018  1
  N  N60  1  0.22407251  0.87086334  0.36306064  1
  N  N61  1  0.11200720  0.76281856  0.10544271  1
  N  N62  1  0.88788729  0.87401765  0.85562677  1
  N  N63  1  0.77886614  0.76028267  0.60751682  1
  N  N64  1  0.55473147  0.87140347  0.36176951  1
  N  N65  1  0.44420124  0.76087229  0.11090077  1
  N  N66  1  0.24612246  0.86206580  0.84878747  1
  N  N67  1  0.11131317  0.75995169  0.60859007  1
  N  N68  1  0.88957576  0.87131044  0.35755365  1
  N  N69  1  0.77572503  0.76225481  0.10550594  1
  N  N70  1  0.54296002  0.85963108  0.85010659  1
  N  N71  1  0.44428659  0.76095842  0.62846531  1
