# generated using pymatgen
data_Al17BN18
_symmetry_space_group_name_H-M   'P 1'
_cell_length_a   9.29896476
_cell_length_b   9.29703249
_cell_length_c   9.97213830
_cell_angle_alpha   89.88134718
_cell_angle_beta   90.02749186
_cell_angle_gamma   60.01667304
_symmetry_Int_Tables_number   1
_chemical_formula_structural   Al17BN18
_chemical_formula_sum   'Al34 B2 N36'
_cell_volume   746.73966527
_cell_formula_units_Z   2
loop_
 _symmetry_equiv_pos_site_id
 _symmetry_equiv_pos_as_xyz
  1  'x, y, z'
loop_
 _atom_site_type_symbol
 _atom_site_label
 _atom_site_symmetry_multiplicity
 _atom_site_fract_x
 _atom_site_fract_y
 _atom_site_fract_z
 _atom_site_occupancy
  Al  Al0  1  0.10991776  0.09375135  0.31171191  1
  Al  Al1  1  0.22238670  0.20487173  0.05905664  1
  Al  Al2  1  0.78023660  0.09705153  0.80986328  1
  Al  Al3  1  0.44499127  0.09309158  0.31025417  1
  Al  Al4  1  0.55586237  0.20503907  0.05886815  1
  Al  Al5  1  0.11107746  0.09382144  0.81041414  1
  Al  Al6  1  0.21610571  0.20751919  0.55908870  1
  Al  Al7  1  0.77896740  0.09533324  0.31128779  1
  Al  Al8  1  0.88902397  0.20477831  0.06592043  1
  Al  Al9  1  0.44301851  0.09060242  0.80856619  1
  Al  Al10  1  0.55953917  0.20788820  0.55962326  1
  Al  Al11  1  0.11067707  0.42727253  0.30977910  1
  Al  Al12  1  0.22212271  0.53905320  0.06040915  1
  Al  Al13  1  0.77693956  0.42769301  0.81331314  1
  Al  Al14  1  0.89045483  0.53289234  0.56010352  1
  Al  Al15  1  0.44611209  0.42826065  0.31023347  1
  Al  Al16  1  0.55251603  0.54451089  0.05580643  1
  Al  Al17  1  0.11146687  0.42820711  0.80901108  1
  Al  Al18  1  0.22215676  0.53933384  0.55798435  1
  Al  Al19  1  0.77753877  0.42566515  0.31273347  1
  Al  Al20  1  0.88824021  0.53913490  0.05978655  1
  Al  Al21  1  0.44230035  0.43328364  0.80934527  1
  Al  Al22  1  0.55907603  0.53521988  0.56714653  1
  Al  Al23  1  0.11157684  0.76283701  0.30958287  1
  Al  Al24  1  0.22762110  0.86987599  0.05487152  1
  Al  Al25  1  0.77356283  0.75991296  0.80863352  1
  Al  Al26  1  0.89078176  0.87663365  0.55946816  1
  Al  Al27  1  0.44433646  0.76060903  0.31237213  1
  Al  Al28  1  0.55268278  0.86932128  0.05604775  1
  Al  Al29  1  0.11625530  0.75943229  0.80904931  1
  Al  Al30  1  0.21810146  0.87595829  0.56587723  1
  Al  Al31  1  0.77650832  0.76128470  0.31075227  1
  Al  Al32  1  0.88812439  0.87254108  0.05865633  1
  Al  Al33  1  0.55412858  0.87128434  0.56451965  1
  B  B34  1  0.88883710  0.20632788  0.57793234  1
  B  B35  1  0.44439811  0.76189540  0.80534902  1
  N  N36  1  0.22248203  0.20468815  0.36914110  1
  N  N37  1  0.11415404  0.09092923  0.11842111  1
  N  N38  1  0.88990725  0.20494520  0.87624618  1
  N  N39  1  0.79168571  0.10871901  0.61582934  1
  N  N40  1  0.55577265  0.20519473  0.36935180  1
  N  N41  1  0.44546873  0.09228964  0.11730969  1
  N  N42  1  0.22171129  0.20567475  0.86777918  1
  N  N43  1  0.08325422  0.10895163  0.61704403  1
  N  N44  1  0.88952013  0.20496728  0.37082312  1
  N  N45  1  0.77676640  0.09313628  0.11968251  1
  N  N46  1  0.55595379  0.20530261  0.86672299  1
  N  N47  1  0.44373127  0.09569534  0.61841585  1
  N  N48  1  0.22244414  0.53911434  0.36730790  1
  N  N49  1  0.11093317  0.42727662  0.11898211  1
  N  N50  1  0.88934437  0.53854330  0.86848139  1
  N  N51  1  0.79194931  0.40021814  0.61859592  1
  N  N52  1  0.55547058  0.54008022  0.37561067  1
  N  N53  1  0.44587152  0.42835173  0.11758400  1
  N  N54  1  0.22196061  0.53880356  0.87014657  1
  N  N55  1  0.11165956  0.42821530  0.61883384  1
  N  N56  1  0.88844783  0.53845719  0.36982478  1
  N  N57  1  0.77450478  0.43009367  0.11819505  1
  N  N58  1  0.54362073  0.56371845  0.86079186  1
  N  N59  1  0.44311517  0.42820902  0.62001616  1
  N  N60  1  0.22392813  0.87162021  0.37476893  1
  N  N61  1  0.11173337  0.76286351  0.11689912  1
  N  N62  1  0.88844651  0.87255337  0.86652371  1
  N  N63  1  0.77871488  0.76070854  0.61852697  1
  N  N64  1  0.55475255  0.87123911  0.37310517  1
  N  N65  1  0.44392139  0.76082052  0.12313934  1
  N  N66  1  0.24668268  0.86106163  0.85993989  1
  N  N67  1  0.11125723  0.76018117  0.61970489  1
  N  N68  1  0.88893344  0.87191992  0.36923563  1
  N  N69  1  0.77568813  0.76201232  0.11776621  1
  N  N70  1  0.54288637  0.85969222  0.86184310  1
  N  N71  1  0.44400927  0.76142753  0.63992411  1
