# generated using pymatgen
data_Al17BN18
_symmetry_space_group_name_H-M   'P 1'
_cell_length_a   9.32051374
_cell_length_b   9.32391450
_cell_length_c   10.01773577
_cell_angle_alpha   89.90532786
_cell_angle_beta   89.73921086
_cell_angle_gamma   60.07686887
_symmetry_Int_Tables_number   1
_chemical_formula_structural   Al17BN18
_chemical_formula_sum   'Al34 B2 N36'
_cell_volume   754.51799846
_cell_formula_units_Z   2
loop_
 _symmetry_equiv_pos_site_id
 _symmetry_equiv_pos_as_xyz
  1  'x, y, z'
loop_
 _atom_site_type_symbol
 _atom_site_label
 _atom_site_symmetry_multiplicity
 _atom_site_fract_x
 _atom_site_fract_y
 _atom_site_fract_z
 _atom_site_occupancy
  Al  Al0  1  0.10111154  0.10548904  0.40065423  1
  Al  Al1  1  0.22179042  0.20394880  0.14814272  1
  Al  Al2  1  0.77828490  0.09634723  0.89386957  1
  Al  Al3  1  0.44522495  0.09457036  0.40203703  1
  Al  Al4  1  0.55669222  0.20459949  0.14789345  1
  Al  Al5  1  0.11247862  0.09572261  0.88646730  1
  Al  Al6  1  0.21676228  0.20799177  0.64899082  1
  Al  Al7  1  0.78038541  0.09713458  0.40181152  1
  Al  Al8  1  0.88985697  0.20479672  0.14526342  1
  Al  Al9  1  0.44189795  0.09043722  0.89841458  1
  Al  Al10  1  0.55971631  0.20648140  0.65032095  1
  Al  Al11  1  0.11091749  0.42825133  0.39795477  1
  Al  Al12  1  0.22231373  0.53961545  0.14808066  1
  Al  Al13  1  0.77318066  0.43327287  0.89156274  1
  Al  Al14  1  0.89085855  0.53386749  0.64925196  1
  Al  Al15  1  0.44431751  0.42520944  0.39870710  1
  Al  Al16  1  0.55919862  0.53442241  0.15025933  1
  Al  Al17  1  0.11092512  0.42719467  0.90038516  1
  Al  Al18  1  0.22166643  0.53720055  0.64954639  1
  Al  Al19  1  0.78265840  0.42119261  0.40259028  1
  Al  Al20  1  0.88761570  0.53865409  0.14846965  1
  Al  Al21  1  0.44249062  0.43468944  0.89840110  1
  Al  Al22  1  0.55690440  0.53818466  0.63138042  1
  Al  Al23  1  0.10637468  0.75924221  0.39772319  1
  Al  Al24  1  0.23357426  0.86782458  0.08637893  1
  Al  Al25  1  0.77323050  0.75839901  0.89893243  1
  Al  Al26  1  0.88912324  0.87682159  0.65055519  1
  Al  Al27  1  0.44292295  0.76270128  0.36010267  1
  Al  Al28  1  0.55809460  0.87460801  0.15386547  1
  Al  Al29  1  0.11432471  0.75587192  0.89426026  1
  Al  Al30  1  0.22054763  0.87443302  0.58379102  1
  Al  Al31  1  0.77743057  0.76204626  0.40229836  1
  Al  Al32  1  0.88894089  0.87365844  0.14776433  1
  Al  Al33  1  0.55281205  0.86913515  0.64694821  1
  B  B34  1  0.88906727  0.20643126  0.65246957  1
  B  B35  1  0.44499040  0.75883878  0.85720064  1
  N  N36  1  0.22231591  0.20525237  0.33992871  1
  N  N37  1  0.10777642  0.09919835  0.08019103  1
  N  N38  1  0.88714552  0.20717238  0.81791721  1
  N  N39  1  0.79025897  0.10696115  0.59586838  1
  N  N40  1  0.55752291  0.20376270  0.34002316  1
  N  N41  1  0.44457500  0.09366144  0.08802256  1
  N  N42  1  0.22280840  0.20751106  0.83724365  1
  N  N43  1  0.08273280  0.11228063  0.59935461  1
  N  N44  1  0.88826111  0.20645369  0.33334103  1
  N  N45  1  0.77859896  0.09519181  0.08484678  1
  N  N46  1  0.55449341  0.20648029  0.84013001  1
  N  N47  1  0.44434636  0.09449494  0.59330645  1
  N  N48  1  0.22248126  0.53882320  0.33773804  1
  N  N49  1  0.11117715  0.42738589  0.09031058  1
  N  N50  1  0.89055957  0.53852830  0.83842927  1
  N  N51  1  0.79127928  0.40235408  0.59713515  1
  N  N52  1  0.56284884  0.52834978  0.34757849  1
  N  N53  1  0.44497730  0.42754144  0.08861523  1
  N  N54  1  0.22270710  0.53622824  0.83860317  1
  N  N55  1  0.11113691  0.42756248  0.58755633  1
  N  N56  1  0.88775491  0.53894534  0.34074139  1
  N  N57  1  0.77866914  0.42623716  0.08315553  1
  N  N58  1  0.54046790  0.56892746  0.84473279  1
  N  N59  1  0.44272617  0.42609685  0.58948873  1
  N  N60  1  0.21429892  0.87931859  0.38421849  1
  N  N61  1  0.10938946  0.75994942  0.08637968  1
  N  N62  1  0.88744794  0.87227250  0.83987049  1
  N  N63  1  0.77790250  0.76124039  0.59339904  1
  N  N64  1  0.56105640  0.87783912  0.34333945  1
  N  N65  1  0.44281826  0.76176377  0.14804110  1
  N  N66  1  0.25778635  0.85378383  0.87816008  1
  N  N67  1  0.10761667  0.75647606  0.59233466  1
  N  N68  1  0.88674568  0.87441528  0.33958349  1
  N  N69  1  0.77753498  0.76125077  0.08846935  1
  N  N70  1  0.54079941  0.85687084  0.84328083  1
  N  N71  1  0.44923287  0.75887662  0.58552528  1
