# generated using pymatgen
data_Al17BN18
_symmetry_space_group_name_H-M   'P 1'
_cell_length_a   9.31774399
_cell_length_b   9.32741466
_cell_length_c   10.13435014
_cell_angle_alpha   90.09993152
_cell_angle_beta   90.02705631
_cell_angle_gamma   60.16336978
_symmetry_Int_Tables_number   1
_chemical_formula_structural   Al17BN18
_chemical_formula_sum   'Al34 B2 N36'
_cell_volume   764.03012529
_cell_formula_units_Z   2
loop_
 _symmetry_equiv_pos_site_id
 _symmetry_equiv_pos_as_xyz
  1  'x, y, z'
loop_
 _atom_site_type_symbol
 _atom_site_label
 _atom_site_symmetry_multiplicity
 _atom_site_fract_x
 _atom_site_fract_y
 _atom_site_fract_z
 _atom_site_occupancy
  Al  Al0  1  0.10394321  0.10176232  0.39274649  1
  Al  Al1  1  0.22065507  0.20323968  0.13662362  1
  Al  Al2  1  0.77844676  0.09887332  0.87392042  1
  Al  Al3  1  0.44489406  0.09490692  0.39005629  1
  Al  Al4  1  0.55825085  0.20451870  0.12172986  1
  Al  Al5  1  0.11187098  0.09486562  0.87400453  1
  Al  Al6  1  0.21531846  0.20822029  0.63734089  1
  Al  Al7  1  0.77690957  0.10437510  0.39151265  1
  Al  Al8  1  0.88933263  0.20688881  0.13270321  1
  Al  Al9  1  0.44180136  0.08840264  0.88555534  1
  Al  Al10  1  0.56083906  0.20036923  0.63458392  1
  Al  Al11  1  0.10902133  0.42519809  0.38218360  1
  Al  Al12  1  0.22464018  0.54284422  0.07163785  1
  Al  Al13  1  0.77936193  0.42732664  0.87458357  1
  Al  Al14  1  0.89202737  0.53132855  0.63780454  1
  Al  Al15  1  0.44575457  0.43356058  0.31837487  1
  Al  Al16  1  0.54923070  0.55012573  0.06008698  1
  Al  Al17  1  0.10879413  0.42438030  0.88949628  1
  Al  Al18  1  0.22512240  0.54066324  0.56416181  1
  Al  Al19  1  0.78589864  0.42025620  0.39271152  1
  Al  Al20  1  0.88619886  0.53787328  0.13688375  1
  Al  Al21  1  0.43871260  0.43784829  0.81728654  1
  Al  Al22  1  0.55477917  0.53567495  0.57753691  1
  Al  Al23  1  0.10981213  0.76659420  0.31841724  1
  Al  Al24  1  0.23221708  0.86608217  0.06060716  1
  Al  Al25  1  0.76995260  0.75503046  0.88539802  1
  Al  Al26  1  0.89409355  0.87253510  0.57643042  1
  Al  Al27  1  0.44177165  0.75985057  0.32128786  1
  Al  Al28  1  0.55954680  0.87699737  0.13922590  1
  Al  Al29  1  0.11749653  0.75652787  0.81614480  1
  Al  Al30  1  0.21981784  0.87082274  0.57821980  1
  Al  Al31  1  0.77454613  0.75875819  0.38944044  1
  Al  Al32  1  0.89575653  0.87065630  0.06416978  1
  Al  Al33  1  0.55469270  0.87033427  0.64416337  1
  B  B34  1  0.88921692  0.20662595  0.64065329  1
  B  B35  1  0.43986256  0.75694322  0.80963678  1
  N  N36  1  0.22244985  0.20231754  0.32621103  1
  N  N37  1  0.10755442  0.09832658  0.06665533  1
  N  N38  1  0.88973085  0.20580968  0.80295288  1
  N  N39  1  0.78918033  0.11070357  0.58687473  1
  N  N40  1  0.55769385  0.20429840  0.33621869  1
  N  N41  1  0.44244639  0.09526612  0.07422329  1
  N  N42  1  0.22207033  0.20730883  0.82374507  1
  N  N43  1  0.08309886  0.11013164  0.58657795  1
  N  N44  1  0.88984418  0.20633738  0.32055808  1
  N  N45  1  0.77740696  0.10208805  0.06787288  1
  N  N46  1  0.55519965  0.20085726  0.82958663  1
  N  N47  1  0.44243079  0.09046105  0.57944646  1
  N  N48  1  0.22442321  0.54344338  0.37351740  1
  N  N49  1  0.10843435  0.42522556  0.08106064  1
  N  N50  1  0.89177652  0.53713413  0.82386269  1
  N  N51  1  0.79421476  0.39935039  0.58646258  1
  N  N52  1  0.55365970  0.54358569  0.38718899  1
  N  N53  1  0.44550825  0.43560412  0.12659166  1
  N  N54  1  0.22437465  0.54094635  0.88195272  1
  N  N55  1  0.10877369  0.42466180  0.57295572  1
  N  N56  1  0.88622478  0.53842237  0.32594695  1
  N  N57  1  0.78163638  0.42475043  0.06699748  1
  N  N58  1  0.53992198  0.56674767  0.86740208  1
  N  N59  1  0.43935344  0.43084492  0.62924162  1
  N  N60  1  0.22606796  0.86974719  0.38744019  1
  N  N61  1  0.11214403  0.76602291  0.12906280  1
  N  N62  1  0.89485491  0.86681715  0.86943325  1
  N  N63  1  0.77267262  0.75532677  0.58100591  1
  N  N64  1  0.55840349  0.87690670  0.32891126  1
  N  N65  1  0.44241997  0.76068302  0.13298471  1
  N  N66  1  0.25014474  0.85530985  0.86737901  1
  N  N67  1  0.11217727  0.75660682  0.63117727  1
  N  N68  1  0.89316172  0.87258758  0.38163626  1
  N  N69  1  0.77619871  0.75782130  0.07661461  1
  N  N70  1  0.54429670  0.86150536  0.83252149  1
  N  N71  1  0.43760129  0.75412457  0.64804304  1
