# generated using pymatgen
data_Al17BN18
_symmetry_space_group_name_H-M   'P 1'
_cell_length_a   9.34492056
_cell_length_b   9.34492497
_cell_length_c   10.10132546
_cell_angle_alpha   90.08621055
_cell_angle_beta   90.08369641
_cell_angle_gamma   60.13019739
_symmetry_Int_Tables_number   1
_chemical_formula_structural   Al17BN18
_chemical_formula_sum   'Al34 B2 N36'
_cell_volume   764.94123268
_cell_formula_units_Z   2
loop_
 _symmetry_equiv_pos_site_id
 _symmetry_equiv_pos_as_xyz
  1  'x, y, z'
loop_
 _atom_site_type_symbol
 _atom_site_label
 _atom_site_symmetry_multiplicity
 _atom_site_fract_x
 _atom_site_fract_y
 _atom_site_fract_z
 _atom_site_occupancy
  Al  Al0  1  0.10236325  0.10105821  0.39479756  1
  Al  Al1  1  0.22237977  0.20151006  0.13724462  1
  Al  Al2  1  0.77838704  0.09506906  0.81237606  1
  Al  Al3  1  0.43791000  0.09683500  0.39180375  1
  Al  Al4  1  0.55869246  0.20792220  0.06527266  1
  Al  Al5  1  0.11256908  0.09504090  0.87767879  1
  Al  Al6  1  0.21409413  0.21049685  0.63942910  1
  Al  Al7  1  0.77502210  0.09170542  0.32404178  1
  Al  Al8  1  0.89101438  0.20770253  0.13489946  1
  Al  Al9  1  0.43825610  0.09313721  0.87639235  1
  Al  Al10  1  0.56155586  0.21187800  0.57410037  1
  Al  Al11  1  0.10851813  0.42520182  0.38259816  1
  Al  Al12  1  0.22433178  0.54101411  0.07411308  1
  Al  Al13  1  0.77836052  0.42925201  0.87767716  1
  Al  Al14  1  0.89380962  0.53078162  0.63942783  1
  Al  Al15  1  0.44767720  0.42905601  0.31936732  1
  Al  Al16  1  0.54826715  0.54583294  0.06340755  1
  Al  Al17  1  0.10831238  0.42499665  0.89162955  1
  Al  Al18  1  0.22480593  0.54148735  0.56594240  1
  Al  Al19  1  0.78437544  0.41904773  0.39479799  1
  Al  Al20  1  0.88482436  0.53906615  0.13724489  1
  Al  Al21  1  0.44052063  0.43568850  0.81828298  1
  Al  Al22  1  0.55468101  0.53848156  0.58107485  1
  Al  Al23  1  0.11237307  0.76435857  0.31936728  1
  Al  Al24  1  0.22914855  0.86495083  0.06340802  1
  Al  Al25  1  0.77645456  0.75494021  0.87639111  1
  Al  Al26  1  0.89519457  0.87823920  0.57409971  1
  Al  Al27  1  0.44416494  0.76084696  0.32322609  1
  Al  Al28  1  0.54978771  0.86647242  0.06698373  1
  Al  Al29  1  0.11900717  0.75720099  0.81828235  1
  Al  Al30  1  0.22179686  0.87136561  0.58107286  1
  Al  Al31  1  0.78014956  0.75459551  0.39180382  1
  Al  Al32  1  0.89123806  0.87537590  0.06527339  1
  Al  Al33  1  0.55189917  0.86858786  0.58664229  1
  B  B34  1  0.89295267  0.20963549  0.64575484  1
  B  B35  1  0.44348109  0.76016540  0.81477070  1
  N  N36  1  0.22113779  0.20225320  0.32719682  1
  N  N37  1  0.10725041  0.09679822  0.06937199  1
  N  N38  1  0.89489226  0.21157242  0.80797584  1
  N  N39  1  0.78857212  0.10525783  0.62253946  1
  N  N40  1  0.55651942  0.21037892  0.38212227  1
  N  N41  1  0.43894758  0.09570424  0.07404275  1
  N  N42  1  0.21909402  0.20986786  0.82502623  1
  N  N43  1  0.08301607  0.11071087  0.58848570  1
  N  N44  1  0.89152917  0.20820945  0.32370278  1
  N  N45  1  0.77484629  0.09153408  0.12580068  1
  N  N46  1  0.55903782  0.21033071  0.87230470  1
  N  N47  1  0.43816223  0.09934586  0.58938650  1
  N  N48  1  0.22519582  0.54188127  0.37394783  1
  N  N49  1  0.10770867  0.42439099  0.08318731  1
  N  N50  1  0.89318866  0.53577568  0.82502514  1
  N  N51  1  0.79402479  0.39970105  0.58848704  1
  N  N52  1  0.55238333  0.54262270  0.38819121  1
  N  N53  1  0.44740370  0.42797650  0.12939797  1
  N  N54  1  0.22423566  0.54092129  0.88278839  1
  N  N55  1  0.10884740  0.42552945  0.57359697  1
  N  N56  1  0.88557268  0.53781940  0.32719751  1
  N  N57  1  0.78011371  0.42393473  0.06937198  1
  N  N58  1  0.53925828  0.56641499  0.86939736  1
  N  N59  1  0.44103805  0.43047603  0.63200787  1
  N  N60  1  0.22593774  0.86906559  0.38819099  1
  N  N61  1  0.11128921  0.76408977  0.12939844  1
  N  N62  1  0.89364557  0.87572367  0.87230522  1
  N  N63  1  0.78265844  0.75484803  0.58938677  1
  N  N64  1  0.55192871  0.86861233  0.38454587  1
  N  N65  1  0.44306362  0.75975212  0.13523037  1
  N  N66  1  0.24973304  0.85593798  0.86939842  1
  N  N67  1  0.11378939  0.75772467  0.63200725  1
  N  N68  1  0.89369168  0.87320613  0.38212191  1
  N  N69  1  0.77901965  0.75563061  0.07404342  1
  N  N70  1  0.54013286  0.85681478  0.86588309  1
  N  N71  1  0.44285826  0.75954559  0.65250160  1
