# generated using pymatgen
data_Al17BN18
_symmetry_space_group_name_H-M   'P 1'
_cell_length_a   9.32557949
_cell_length_b   9.33071417
_cell_length_c   10.12925602
_cell_angle_alpha   90.10273245
_cell_angle_beta   90.02809593
_cell_angle_gamma   60.16262321
_symmetry_Int_Tables_number   1
_chemical_formula_structural   Al17BN18
_chemical_formula_sum   'Al34 B2 N36'
_cell_volume   764.55282538
_cell_formula_units_Z   2
loop_
 _symmetry_equiv_pos_site_id
 _symmetry_equiv_pos_as_xyz
  1  'x, y, z'
loop_
 _atom_site_type_symbol
 _atom_site_label
 _atom_site_symmetry_multiplicity
 _atom_site_fract_x
 _atom_site_fract_y
 _atom_site_fract_z
 _atom_site_occupancy
  Al  Al0  1  0.10100087  0.10044890  0.39550506  1
  Al  Al1  1  0.22303262  0.20037051  0.13765892  1
  Al  Al2  1  0.77844544  0.09686484  0.81170822  1
  Al  Al3  1  0.43716490  0.09640100  0.39193174  1
  Al  Al4  1  0.55870256  0.20774017  0.06679928  1
  Al  Al5  1  0.11335656  0.09578528  0.87800282  1
  Al  Al6  1  0.21543644  0.21038315  0.64005728  1
  Al  Al7  1  0.77344777  0.08941348  0.31654671  1
  Al  Al8  1  0.89146384  0.20701129  0.13484681  1
  Al  Al9  1  0.43870152  0.09461656  0.87930684  1
  Al  Al10  1  0.56323587  0.21177880  0.57081754  1
  Al  Al11  1  0.10912094  0.42346700  0.38420195  1
  Al  Al12  1  0.22409119  0.54133816  0.07418212  1
  Al  Al13  1  0.77853244  0.43070663  0.87885917  1
  Al  Al14  1  0.89443875  0.52937476  0.63914288  1
  Al  Al15  1  0.44711280  0.42879921  0.31929922  1
  Al  Al16  1  0.54773891  0.54620332  0.06357101  1
  Al  Al17  1  0.10820768  0.42584936  0.89238906  1
  Al  Al18  1  0.22460931  0.54198580  0.56672742  1
  Al  Al19  1  0.78393986  0.41613914  0.39591600  1
  Al  Al20  1  0.88567809  0.53690090  0.13739325  1
  Al  Al21  1  0.44124399  0.43539723  0.81855258  1
  Al  Al22  1  0.55408445  0.53912974  0.58166466  1
  Al  Al23  1  0.11281700  0.76333908  0.31923284  1
  Al  Al24  1  0.22931275  0.86481895  0.06341753  1
  Al  Al25  1  0.77393021  0.76316691  0.84026926  1
  Al  Al26  1  0.89319894  0.87958031  0.57205448  1
  Al  Al27  1  0.44382350  0.75978227  0.32314535  1
  Al  Al28  1  0.55487328  0.86304248  0.06461337  1
  Al  Al29  1  0.11855273  0.75840322  0.81857223  1
  Al  Al30  1  0.22158290  0.87164125  0.58186679  1
  Al  Al31  1  0.77823006  0.75680320  0.36774260  1
  Al  Al32  1  0.88919905  0.87217549  0.06533494  1
  Al  Al33  1  0.55254331  0.86906560  0.58500086  1
  B  B34  1  0.89339382  0.21016078  0.64654142  1
  B  B35  1  0.44339321  0.76061978  0.81513180  1
  N  N36  1  0.22082972  0.20075178  0.32718719  1
  N  N37  1  0.10717203  0.09676089  0.06882751  1
  N  N38  1  0.89567579  0.21281278  0.80807419  1
  N  N39  1  0.78863098  0.10581605  0.62354826  1
  N  N40  1  0.55702040  0.20880910  0.37962246  1
  N  N41  1  0.43963884  0.09439844  0.07450820  1
  N  N42  1  0.22063972  0.21033723  0.82505955  1
  N  N43  1  0.08316585  0.11121986  0.58880056  1
  N  N44  1  0.89082403  0.20593953  0.32320510  1
  N  N45  1  0.77485088  0.08968082  0.12723902  1
  N  N46  1  0.56062114  0.21126494  0.87515664  1
  N  N47  1  0.43820571  0.10036101  0.58717877  1
  N  N48  1  0.22483964  0.54141342  0.37506974  1
  N  N49  1  0.10857364  0.42324661  0.08318485  1
  N  N50  1  0.89423094  0.53529023  0.82563190  1
  N  N51  1  0.79357578  0.39985663  0.58862920  1
  N  N52  1  0.55178341  0.54195193  0.38914246  1
  N  N53  1  0.44704169  0.42821707  0.13024024  1
  N  N54  1  0.22438600  0.54196673  0.88322390  1
  N  N55  1  0.10893214  0.42553568  0.57399481  1
  N  N56  1  0.88697249  0.53285749  0.32929412  1
  N  N57  1  0.77984117  0.42295855  0.06934524  1
  N  N58  1  0.53919236  0.56734846  0.86971973  1
  N  N59  1  0.44153800  0.42951742  0.63234206  1
  N  N60  1  0.22570615  0.86827864  0.38932670  1
  N  N61  1  0.11101082  0.76430360  0.12994664  1
  N  N62  1  0.89257717  0.87768667  0.87459444  1
  N  N63  1  0.77993427  0.76207113  0.61268986  1
  N  N64  1  0.55314555  0.86610931  0.38799854  1
  N  N65  1  0.44323695  0.76022932  0.13552033  1
  N  N66  1  0.25013836  0.85652225  0.86957993  1
  N  N67  1  0.11211390  0.75892187  0.63235637  1
  N  N68  1  0.89209542  0.87232932  0.38211293  1
  N  N69  1  0.77798130  0.75793037  0.09519129  1
  N  N70  1  0.54136133  0.85755620  0.86678017  1
  N  N71  1  0.44295655  0.76040755  0.65308289  1
