# generated using pymatgen
data_Al17BN18
_symmetry_space_group_name_H-M   'P 1'
_cell_length_a   9.32765681
_cell_length_b   9.32990667
_cell_length_c   10.13407872
_cell_angle_alpha   90.09426058
_cell_angle_beta   90.03100385
_cell_angle_gamma   60.15921484
_symmetry_Int_Tables_number   1
_chemical_formula_structural   Al17BN18
_chemical_formula_sum   'Al34 B2 N36'
_cell_volume   764.99515107
_cell_formula_units_Z   2
loop_
 _symmetry_equiv_pos_site_id
 _symmetry_equiv_pos_as_xyz
  1  'x, y, z'
loop_
 _atom_site_type_symbol
 _atom_site_label
 _atom_site_symmetry_multiplicity
 _atom_site_fract_x
 _atom_site_fract_y
 _atom_site_fract_z
 _atom_site_occupancy
  Al  Al0  1  0.10402098  0.10190746  0.39303961  1
  Al  Al1  1  0.22072673  0.20316232  0.13697562  1
  Al  Al2  1  0.78147053  0.09727947  0.87052521  1
  Al  Al3  1  0.44281923  0.09334268  0.39092136  1
  Al  Al4  1  0.55362750  0.21238675  0.07065426  1
  Al  Al5  1  0.11156247  0.09510652  0.87470460  1
  Al  Al6  1  0.21466957  0.20823732  0.63799697  1
  Al  Al7  1  0.78086547  0.10230112  0.39096682  1
  Al  Al8  1  0.88937948  0.20664807  0.13305564  1
  Al  Al9  1  0.43911008  0.08653606  0.88451753  1
  Al  Al10  1  0.55771990  0.20711756  0.59382000  1
  Al  Al11  1  0.10910083  0.42548230  0.38220016  1
  Al  Al12  1  0.22455846  0.54283072  0.07236965  1
  Al  Al13  1  0.77903424  0.42766399  0.87476744  1
  Al  Al14  1  0.89202558  0.53123153  0.63782546  1
  Al  Al15  1  0.44817430  0.42864209  0.31877743  1
  Al  Al16  1  0.54928128  0.55014299  0.06070286  1
  Al  Al17  1  0.10864633  0.42484103  0.88970122  1
  Al  Al18  1  0.22495795  0.54093455  0.56416641  1
  Al  Al19  1  0.78543048  0.42067442  0.39288150  1
  Al  Al20  1  0.88618262  0.53779640  0.13691775  1
  Al  Al21  1  0.43935177  0.43596899  0.81701003  1
  Al  Al22  1  0.55473331  0.53617838  0.57781278  1
  Al  Al23  1  0.11064862  0.76595691  0.31852620  1
  Al  Al24  1  0.23233497  0.86620061  0.06085804  1
  Al  Al25  1  0.77010875  0.75482125  0.88565837  1
  Al  Al26  1  0.89454606  0.87202188  0.57754741  1
  Al  Al27  1  0.44185147  0.75942809  0.32133802  1
  Al  Al28  1  0.55984416  0.87746002  0.13962025  1
  Al  Al29  1  0.11799036  0.75616971  0.81637233  1
  Al  Al30  1  0.21997241  0.87093988  0.57837636  1
  Al  Al31  1  0.77469226  0.75874297  0.38960577  1
  Al  Al32  1  0.89611779  0.87037685  0.06459985  1
  Al  Al33  1  0.55489748  0.86991521  0.64492040  1
  B  B34  1  0.88997319  0.20581342  0.64133648  1
  B  B35  1  0.43985034  0.75623386  0.80988616  1
  N  N36  1  0.22209688  0.20256000  0.32631365  1
  N  N37  1  0.10759335  0.09838849  0.06707233  1
  N  N38  1  0.89042143  0.20644152  0.80320742  1
  N  N39  1  0.79290581  0.10854866  0.59039511  1
  N  N40  1  0.55413919  0.21116733  0.37654635  1
  N  N41  1  0.44075422  0.09385961  0.07517666  1
  N  N42  1  0.22084982  0.20790090  0.82396481  1
  N  N43  1  0.08314850  0.11018669  0.58670032  1
  N  N44  1  0.89012237  0.20671351  0.32077384  1
  N  N45  1  0.78116210  0.09960382  0.06986113  1
  N  N46  1  0.55160531  0.20821148  0.85889056  1
  N  N47  1  0.43983963  0.08839275  0.58227148  1
  N  N48  1  0.22506562  0.54314635  0.37327557  1
  N  N49  1  0.10842037  0.42524926  0.08127032  1
  N  N50  1  0.89171924  0.53714261  0.82393270  1
  N  N51  1  0.79401141  0.39933350  0.58656076  1
  N  N52  1  0.55332278  0.54356561  0.38712109  1
  N  N53  1  0.44730050  0.43167961  0.12812841  1
  N  N54  1  0.22444917  0.54119228  0.88240997  1
  N  N55  1  0.10889302  0.42471171  0.57307561  1
  N  N56  1  0.88624810  0.53842206  0.32604848  1
  N  N57  1  0.78146624  0.42466413  0.06716940  1
  N  N58  1  0.53948734  0.56676539  0.86774716  1
  N  N59  1  0.43942421  0.43054608  0.63157474  1
  N  N60  1  0.22616159  0.86993836  0.38751846  1
  N  N61  1  0.11277226  0.76555484  0.12916558  1
  N  N62  1  0.89497935  0.86627327  0.86886459  1
  N  N63  1  0.77263221  0.75541190  0.58106780  1
  N  N64  1  0.55868728  0.87687114  0.32893429  1
  N  N65  1  0.44255928  0.76043883  0.13322191  1
  N  N66  1  0.25010794  0.85551343  0.86755344  1
  N  N67  1  0.11278611  0.75626544  0.63131202  1
  N  N68  1  0.89391076  0.87191707  0.38173973  1
  N  N69  1  0.77636106  0.75771874  0.07665490  1
  N  N70  1  0.54484537  0.86075261  0.83278803  1
  N  N71  1  0.43761169  0.75380085  0.64836908  1
