# generated using pymatgen
data_Al17BN18
_symmetry_space_group_name_H-M   'P 1'
_cell_length_a   9.32700579
_cell_length_b   9.32692712
_cell_length_c   10.04334218
_cell_angle_alpha   89.74975811
_cell_angle_beta   89.80594546
_cell_angle_gamma   60.09738416
_symmetry_Int_Tables_number   1
_chemical_formula_structural   Al17BN18
_chemical_formula_sum   'Al34 B2 N36'
_cell_volume   757.37418120
_cell_formula_units_Z   2
loop_
 _symmetry_equiv_pos_site_id
 _symmetry_equiv_pos_as_xyz
  1  'x, y, z'
loop_
 _atom_site_type_symbol
 _atom_site_label
 _atom_site_symmetry_multiplicity
 _atom_site_fract_x
 _atom_site_fract_y
 _atom_site_fract_z
 _atom_site_occupancy
  Al  Al0  1  0.10520741  0.09549939  0.35792290  1
  Al  Al1  1  0.22662771  0.20758151  0.06022873  1
  Al  Al2  1  0.78071272  0.09736236  0.80765563  1
  Al  Al3  1  0.44555438  0.09283608  0.30925636  1
  Al  Al4  1  0.55622295  0.20472533  0.05486867  1
  Al  Al5  1  0.11266812  0.09237664  0.87113964  1
  Al  Al6  1  0.21726089  0.20930624  0.56120949  1
  Al  Al7  1  0.77459742  0.09115928  0.30350421  1
  Al  Al8  1  0.88881991  0.20777801  0.10768378  1
  Al  Al9  1  0.44374641  0.09025512  0.80693285  1
  Al  Al10  1  0.55985885  0.20792253  0.55871652  1
  Al  Al11  1  0.11038193  0.42792450  0.30928767  1
  Al  Al12  1  0.22183445  0.53867452  0.05917490  1
  Al  Al13  1  0.77572573  0.42934046  0.87236371  1
  Al  Al14  1  0.89358233  0.53552306  0.56307483  1
  Al  Al15  1  0.44554870  0.42831412  0.30920210  1
  Al  Al16  1  0.54527627  0.54790852  0.05624685  1
  Al  Al17  1  0.11248618  0.42871606  0.80799179  1
  Al  Al18  1  0.22263531  0.53910139  0.55728439  1
  Al  Al19  1  0.78074494  0.41803299  0.37166489  1
  Al  Al20  1  0.89063207  0.54346779  0.05930637  1
  Al  Al21  1  0.44221513  0.43295231  0.80860101  1
  Al  Al22  1  0.55421245  0.53724298  0.57084102  1
  Al  Al23  1  0.11159758  0.76145889  0.30885980  1
  Al  Al24  1  0.23097022  0.86225350  0.05711941  1
  Al  Al25  1  0.77325758  0.76112189  0.80706351  1
  Al  Al26  1  0.89129546  0.87681389  0.55845846  1
  Al  Al27  1  0.44549336  0.76018346  0.31189896  1
  Al  Al28  1  0.55301181  0.86961705  0.05533215  1
  Al  Al29  1  0.11621499  0.75931049  0.80840125  1
  Al  Al30  1  0.21880072  0.87317983  0.56861648  1
  Al  Al31  1  0.77644234  0.76099489  0.30955316  1
  Al  Al32  1  0.88795045  0.87297484  0.05494952  1
  Al  Al33  1  0.55401548  0.87137534  0.56379501  1
  B  B34  1  0.89057786  0.20499683  0.59914304  1
  B  B35  1  0.44304839  0.76051938  0.80540574  1
  N  N36  1  0.22458134  0.20659597  0.36899726  1
  N  N37  1  0.11660235  0.08884155  0.07759004  1
  N  N38  1  0.88906667  0.20536495  0.85385892  1
  N  N39  1  0.79183358  0.10820759  0.61219416  1
  N  N40  1  0.55627200  0.20560197  0.36915715  1
  N  N41  1  0.44695607  0.09208499  0.11800990  1
  N  N42  1  0.22626383  0.20971261  0.86725856  1
  N  N43  1  0.07710118  0.11071320  0.57842605  1
  N  N44  1  0.88918544  0.20782478  0.30584565  1
  N  N45  1  0.77285583  0.08958215  0.11422883  1
  N  N46  1  0.55606876  0.20540396  0.86426547  1
  N  N47  1  0.44435727  0.09507035  0.61746947  1
  N  N48  1  0.22241487  0.53865462  0.36761685  1
  N  N49  1  0.11070504  0.42799945  0.12043251  1
  N  N50  1  0.89325921  0.54317583  0.86570870  1
  N  N51  1  0.79452705  0.39315521  0.57664863  1
  N  N52  1  0.55020426  0.54232522  0.37675496  1
  N  N53  1  0.44464290  0.42758852  0.11764710  1
  N  N54  1  0.22230448  0.53915436  0.87017221  1
  N  N55  1  0.11280701  0.42828583  0.61941850  1
  N  N56  1  0.89008558  0.54071212  0.37088917  1
  N  N57  1  0.77185848  0.43340298  0.07193743  1
  N  N58  1  0.53805526  0.56703250  0.85836834  1
  N  N59  1  0.44217570  0.42711307  0.62031811  1
  N  N60  1  0.22618252  0.86647207  0.37466334  1
  N  N61  1  0.11078188  0.76120094  0.11757766  1
  N  N62  1  0.88876692  0.87285946  0.86436501  1
  N  N63  1  0.77780208  0.76228762  0.61778308  1
  N  N64  1  0.55487148  0.87134242  0.37288685  1
  N  N65  1  0.44470417  0.76089653  0.12449903  1
  N  N66  1  0.24970374  0.85549749  0.85976814  1
  N  N67  1  0.11081544  0.75902536  0.61978610  1
  N  N68  1  0.88906476  0.87251301  0.36891049  1
  N  N69  1  0.77556272  0.76324980  0.11805391  1
  N  N70  1  0.54301558  0.85997916  0.86187632  1
  N  N71  1  0.44364250  0.76213545  0.63979480  1
