# generated using pymatgen
data_Al17BN18
_symmetry_space_group_name_H-M   'P 1'
_cell_length_a   9.30896822
_cell_length_b   9.30896455
_cell_length_c   10.12350168
_cell_angle_alpha   90.08285387
_cell_angle_beta   90.08346067
_cell_angle_gamma   60.20037763
_symmetry_Int_Tables_number   1
_chemical_formula_structural   Al17BN18
_chemical_formula_sum   'Al34 B2 N36'
_cell_volume   761.26711156
_cell_formula_units_Z   2
loop_
 _symmetry_equiv_pos_site_id
 _symmetry_equiv_pos_as_xyz
  1  'x, y, z'
loop_
 _atom_site_type_symbol
 _atom_site_label
 _atom_site_symmetry_multiplicity
 _atom_site_fract_x
 _atom_site_fract_y
 _atom_site_fract_z
 _atom_site_occupancy
  Al  Al0  1  0.10330972  0.10258161  0.40661245  1
  Al  Al1  1  0.22073068  0.20290687  0.15015708  1
  Al  Al2  1  0.77834742  0.09500993  0.89637719  1
  Al  Al3  1  0.44522364  0.09443676  0.40253247  1
  Al  Al4  1  0.55966558  0.20103274  0.14960786  1
  Al  Al5  1  0.11126085  0.09568606  0.88728616  1
  Al  Al6  1  0.21620591  0.20819078  0.65124365  1
  Al  Al7  1  0.78033436  0.09699731  0.40492960  1
  Al  Al8  1  0.88950869  0.20617286  0.14645638  1
  Al  Al9  1  0.44299327  0.08950213  0.90156667  1
  Al  Al10  1  0.56171617  0.19962522  0.65183794  1
  Al  Al11  1  0.10844069  0.42510431  0.39648231  1
  Al  Al12  1  0.22527163  0.54193577  0.08510067  1
  Al  Al13  1  0.77902420  0.42792340  0.88728694  1
  Al  Al14  1  0.89152731  0.53286972  0.65124369  1
  Al  Al15  1  0.44587011  0.43450188  0.33261245  1
  Al  Al16  1  0.54903694  0.54849872  0.07357563  1
  Al  Al17  1  0.10804995  0.42471335  0.90297647  1
  Al  Al18  1  0.22427926  0.54094387  0.57954726  1
  Al  Al19  1  0.78591915  0.41997289  0.40661257  1
  Al  Al20  1  0.88624337  0.53739623  0.15015759  1
  Al  Al21  1  0.43939096  0.43725715  0.83159853  1
  Al  Al22  1  0.55457814  0.53577047  0.59203470  1
  Al  Al23  1  0.11783935  0.76253323  0.33261189  1
  Al  Al24  1  0.23183474  0.86569861  0.07357550  1
  Al  Al25  1  0.77283845  0.75965705  0.90156703  1
  Al  Al26  1  0.88295846  0.87838148  0.65183823  1
  Al  Al27  1  0.44298150  0.75964551  0.33510070  1
  Al  Al28  1  0.55889185  0.87555772  0.15159163  1
  Al  Al29  1  0.12059376  0.75605371  0.83159809  1
  Al  Al30  1  0.21910597  0.87124057  0.59203526  1
  Al  Al31  1  0.77777261  0.76188860  0.40253229  1
  Al  Al32  1  0.88436603  0.87633199  0.14960823  1
  Al  Al33  1  0.55499244  0.87165637  0.65684545  1
  B  B34  1  0.88953675  0.20620091  0.65430079  1
  B  B35  1  0.44131985  0.75798270  0.82318988  1
  N  N36  1  0.22236552  0.20250595  0.34003967  1
  N  N37  1  0.10729157  0.09826603  0.08017182  1
  N  N38  1  0.88783824  0.20450178  0.81759418  1
  N  N39  1  0.78943819  0.10610397  0.59609497  1
  N  N40  1  0.55977378  0.20153460  0.34314476  1
  N  N41  1  0.44324432  0.09530609  0.09007031  1
  N  N42  1  0.22306480  0.20725132  0.83780642  1
  N  N43  1  0.08264936  0.11066653  0.60087462  1
  N  N44  1  0.88923383  0.20589832  0.33480066  1
  N  N45  1  0.77876541  0.09543231  0.08557196  1
  N  N46  1  0.55668221  0.20015864  0.84279276  1
  N  N47  1  0.44296929  0.09204034  0.59163123  1
  N  N48  1  0.22528887  0.54195131  0.38880378  1
  N  N49  1  0.10821875  0.42488363  0.09455644  1
  N  N50  1  0.89058696  0.53972955  0.83780643  1
  N  N51  1  0.79400411  0.39931287  0.60087456  1
  N  N52  1  0.55372072  0.54346812  0.40169924  1
  N  N53  1  0.44639741  0.43378303  0.14104838  1
  N  N54  1  0.22415530  0.54081718  0.89522099  1
  N  N55  1  0.10808469  0.42474943  0.58725544  1
  N  N56  1  0.88584133  0.53903101  0.34003987  1
  N  N57  1  0.78160386  0.42395615  0.08017214  1
  N  N58  1  0.53980504  0.56717658  0.88067099  1
  N  N59  1  0.43991121  0.42992926  0.64292946  1
  N  N60  1  0.22680514  0.87038368  0.40169928  1
  N  N61  1  0.11711681  0.76306140  0.14104767  1
  N  N62  1  0.88349567  0.87334552  0.84279320  1
  N  N63  1  0.77537483  0.75963414  0.59163111  1
  N  N64  1  0.55933428  0.87599967  0.34253533  1
  N  N65  1  0.44277201  0.75943512  0.14632555  1
  N  N66  1  0.25051345  0.85646770  0.88067053  1
  N  N67  1  0.11326267  0.75657529  0.64292899  1
  N  N68  1  0.88487195  0.87643763  0.34314494  1
  N  N69  1  0.77863954  0.75991085  0.09007073  1
  N  N70  1  0.54542480  0.86208910  0.84636600  1
  N  N71  1  0.43842582  0.75508930  0.66127254  1
