# generated using pymatgen
data_Al17BN18
_symmetry_space_group_name_H-M   'P 1'
_cell_length_a   9.32683305
_cell_length_b   9.32809433
_cell_length_c   10.14243925
_cell_angle_alpha   90.08341594
_cell_angle_beta   90.03395367
_cell_angle_gamma   60.15881367
_symmetry_Int_Tables_number   1
_chemical_formula_structural   Al17BN18
_chemical_formula_sum   'Al34 B2 N36'
_cell_volume   765.40712126
_cell_formula_units_Z   2
loop_
 _symmetry_equiv_pos_site_id
 _symmetry_equiv_pos_as_xyz
  1  'x, y, z'
loop_
 _atom_site_type_symbol
 _atom_site_label
 _atom_site_symmetry_multiplicity
 _atom_site_fract_x
 _atom_site_fract_y
 _atom_site_fract_z
 _atom_site_occupancy
  Al  Al0  1  0.10088670  0.10049957  0.39542768  1
  Al  Al1  1  0.22235909  0.20092827  0.13783000  1
  Al  Al2  1  0.77841403  0.09642728  0.81121238  1
  Al  Al3  1  0.43711480  0.09626960  0.39160343  1
  Al  Al4  1  0.55850024  0.20804260  0.06656968  1
  Al  Al5  1  0.11328457  0.09565178  0.87788013  1
  Al  Al6  1  0.21524323  0.21047947  0.63986053  1
  Al  Al7  1  0.77338271  0.08918590  0.31676715  1
  Al  Al8  1  0.89138187  0.20737941  0.13505110  1
  Al  Al9  1  0.43890518  0.09443429  0.87848322  1
  Al  Al10  1  0.56315256  0.21183777  0.57051278  1
  Al  Al11  1  0.10842329  0.42408023  0.38385648  1
  Al  Al12  1  0.22425196  0.54106608  0.07395794  1
  Al  Al13  1  0.77859181  0.43035433  0.87821944  1
  Al  Al14  1  0.89370875  0.53129622  0.63946434  1
  Al  Al15  1  0.44707770  0.42891148  0.31938727  1
  Al  Al16  1  0.54788605  0.54585114  0.06325217  1
  Al  Al17  1  0.10837160  0.42563243  0.89191950  1
  Al  Al18  1  0.22466282  0.54171064  0.56650079  1
  Al  Al19  1  0.78404749  0.41678362  0.39546592  1
  Al  Al20  1  0.88496842  0.53823338  0.13762167  1
  Al  Al21  1  0.44129118  0.43539288  0.81837346  1
  Al  Al22  1  0.55435163  0.53891206  0.58144163  1
  Al  Al23  1  0.11245959  0.76354434  0.31937747  1
  Al  Al24  1  0.22922419  0.86466879  0.06311955  1
  Al  Al25  1  0.77634260  0.75781851  0.87079327  1
  Al  Al26  1  0.89452932  0.88020196  0.57141865  1
  Al  Al27  1  0.44390516  0.76011239  0.32331525  1
  Al  Al28  1  0.55111751  0.86507652  0.06583004  1
  Al  Al29  1  0.11852005  0.75841395  0.81818880  1
  Al  Al30  1  0.22181852  0.87147484  0.58146276  1
  Al  Al31  1  0.77997916  0.75358195  0.39000347  1
  Al  Al32  1  0.89110840  0.87396293  0.06549156  1
  Al  Al33  1  0.55178046  0.86932563  0.58589800  1
  B  B34  1  0.89348378  0.21050330  0.64633035  1
  B  B35  1  0.44344604  0.76088311  0.81503151  1
  N  N36  1  0.22030264  0.20133804  0.32705789  1
  N  N37  1  0.10704923  0.09670398  0.06870630  1
  N  N38  1  0.89567216  0.21279714  0.80775231  1
  N  N39  1  0.78836052  0.10579007  0.62351475  1
  N  N40  1  0.55685108  0.20903977  0.37970651  1
  N  N41  1  0.43914105  0.09502180  0.07458174  1
  N  N42  1  0.22050584  0.21032577  0.82486669  1
  N  N43  1  0.08317422  0.11108573  0.58865148  1
  N  N44  1  0.89063936  0.20643110  0.32298258  1
  N  N45  1  0.77438771  0.08991600  0.12755190  1
  N  N46  1  0.56070584  0.21119898  0.87529144  1
  N  N47  1  0.43839766  0.10028427  0.58748325  1
  N  N48  1  0.22487083  0.54140322  0.37506391  1
  N  N49  1  0.10796930  0.42369415  0.08280501  1
  N  N50  1  0.89359004  0.53668288  0.82452106  1
  N  N51  1  0.79393433  0.39991952  0.58848759  1
  N  N52  1  0.55181192  0.54202768  0.38917412  1
  N  N53  1  0.44702680  0.42823588  0.13029034  1
  N  N54  1  0.22445726  0.54187921  0.88323132  1
  N  N55  1  0.10872807  0.42544403  0.57381383  1
  N  N56  1  0.88559482  0.53578832  0.32759620  1
  N  N57  1  0.78002387  0.42318094  0.06898176  1
  N  N58  1  0.53931402  0.56724470  0.86975738  1
  N  N59  1  0.44159348  0.42947900  0.63238806  1
  N  N60  1  0.22567197  0.86826976  0.38923370  1
  N  N61  1  0.11132278  0.76392593  0.13009719  1
  N  N62  1  0.89371769  0.87824574  0.87420819  1
  N  N63  1  0.78237238  0.75694050  0.59217386  1
  N  N64  1  0.55186409  0.86741693  0.38569107  1
  N  N65  1  0.44307517  0.75973003  0.13561492  1
  N  N66  1  0.25013930  0.85639940  0.86963128  1
  N  N67  1  0.11251855  0.75866608  0.63234603  1
  N  N68  1  0.89264201  0.87294451  0.38071746  1
  N  N69  1  0.77941004  0.75480653  0.07538672  1
  N  N70  1  0.54033839  0.85803760  0.86598004  1
  N  N71  1  0.44293080  0.76013962  0.65315252  1
