# generated using pymatgen
data_Al17BN18
_symmetry_space_group_name_H-M   'P 1'
_cell_length_a   9.30442421
_cell_length_b   9.30446253
_cell_length_c   10.13996355
_cell_angle_alpha   90.04914304
_cell_angle_beta   90.04906727
_cell_angle_gamma   60.17736865
_symmetry_Int_Tables_number   1
_chemical_formula_structural   Al17BN18
_chemical_formula_sum   'Al34 B2 N36'
_cell_volume   761.58966650
_cell_formula_units_Z   2
loop_
 _symmetry_equiv_pos_site_id
 _symmetry_equiv_pos_as_xyz
  1  'x, y, z'
loop_
 _atom_site_type_symbol
 _atom_site_label
 _atom_site_symmetry_multiplicity
 _atom_site_fract_x
 _atom_site_fract_y
 _atom_site_fract_z
 _atom_site_occupancy
  Al  Al0  1  0.10135523  0.10100431  0.39663441  1
  Al  Al1  1  0.21524991  0.20426570  0.13777532  1
  Al  Al2  1  0.77828472  0.09496152  0.81312822  1
  Al  Al3  1  0.44878331  0.09036223  0.32049402  1
  Al  Al4  1  0.55545247  0.20475666  0.06762767  1
  Al  Al5  1  0.11411134  0.09550203  0.87829627  1
  Al  Al6  1  0.21259619  0.21065680  0.63893539  1
  Al  Al7  1  0.77423480  0.09096515  0.31849008  1
  Al  Al8  1  0.89023630  0.20695057  0.13520130  1
  Al  Al9  1  0.45033869  0.08830101  0.81831190  1
  Al  Al10  1  0.56040433  0.20700430  0.56858012  1
  Al  Al11  1  0.10791205  0.42463738  0.38586085  1
  Al  Al12  1  0.22492487  0.54162183  0.07365676  1
  Al  Al13  1  0.77883046  0.43079159  0.87829376  1
  Al  Al14  1  0.89395591  0.52929576  0.63893385  1
  Al  Al15  1  0.44694201  0.42924946  0.32009049  1
  Al  Al16  1  0.54739146  0.54666669  0.06355903  1
  Al  Al17  1  0.10898519  0.42566346  0.89117017  1
  Al  Al18  1  0.22533409  0.54204580  0.56729652  1
  Al  Al19  1  0.78426687  0.41809065  0.39664720  1
  Al  Al20  1  0.88755671  0.53196319  0.13778971  1
  Al  Al21  1  0.44179403  0.43379777  0.81896676  1
  Al  Al22  1  0.55427773  0.53879197  0.58283310  1
  Al  Al23  1  0.11252175  0.76366454  0.32008910  1
  Al  Al24  1  0.22996429  0.86408730  0.06357206  1
  Al  Al25  1  0.77162343  0.76701822  0.81831665  1
  Al  Al26  1  0.89029217  0.87711409  0.56857967  1
  Al  Al27  1  0.44375015  0.76047527  0.32372183  1
  Al  Al28  1  0.55297601  0.86967985  0.06527328  1
  Al  Al29  1  0.11711964  0.75847219  0.81896926  1
  Al  Al30  1  0.22207026  0.87100118  0.58281691  1
  Al  Al31  1  0.77363075  0.76551647  0.32049630  1
  Al  Al32  1  0.88805513  0.87215367  0.06763365  1
  Al  Al33  1  0.55495659  0.87166109  0.57382076  1
  B  B34  1  0.89201191  0.20871611  0.64684411  1
  B  B35  1  0.44374997  0.76044252  0.81611923  1
  N  N36  1  0.21587426  0.20380936  0.32896213  1
  N  N37  1  0.10641465  0.09643075  0.06835346  1
  N  N38  1  0.89488927  0.21156660  0.80863229  1
  N  N39  1  0.78785283  0.10455981  0.62388793  1
  N  N40  1  0.55448929  0.20668498  0.38032191  1
  N  N41  1  0.44835124  0.09024015  0.12725525  1
  N  N42  1  0.21988282  0.21022725  0.82719720  1
  N  N43  1  0.08280662  0.11031174  0.58930480  1
  N  N44  1  0.89039324  0.20713421  0.32372717  1
  N  N45  1  0.77386150  0.09056675  0.12786122  1
  N  N46  1  0.55791650  0.20698139  0.87875318  1
  N  N47  1  0.44980878  0.09332998  0.62764174  1
  N  N48  1  0.22500738  0.54173272  0.37602979  1
  N  N49  1  0.10798285  0.42469036  0.08106865  1
  N  N50  1  0.89355369  0.53656331  0.82719267  1
  N  N51  1  0.79359102  0.39952069  0.58931702  1
  N  N52  1  0.55156923  0.54265700  0.39019539  1
  N  N53  1  0.44747947  0.42760544  0.13041753  1
  N  N54  1  0.22525729  0.54193257  0.88322198  1
  N  N55  1  0.10914383  0.42584075  0.57500963  1
  N  N56  1  0.88707683  0.53260893  0.32897917  1
  N  N57  1  0.77973459  0.42312220  0.06835197  1
  N  N58  1  0.53930636  0.56730955  0.86952418  1
  N  N59  1  0.44277949  0.42693031  0.63264460  1
  N  N60  1  0.22592108  0.86830778  0.39017870  1
  N  N61  1  0.11090270  0.76417517  0.13041973  1
  N  N62  1  0.89030198  0.87459701  0.87875909  1
  N  N63  1  0.77662730  0.76650748  0.62764260  1
  N  N64  1  0.55446427  0.87119931  0.38480283  1
  N  N65  1  0.44405958  0.76075807  0.13554474  1
  N  N66  1  0.25062899  0.85598284  0.86953884  1
  N  N67  1  0.11022390  0.75949265  0.63264368  1
  N  N68  1  0.88995684  0.87122100  0.38032170  1
  N  N69  1  0.77353024  0.76506353  0.12726215  1
  N  N70  1  0.54387220  0.86055435  0.87430627  1
  N  N71  1  0.44546312  0.76218631  0.65281126  1
