# generated using pymatgen
data_Al17BN18
_symmetry_space_group_name_H-M   'P 1'
_cell_length_a   9.32829487
_cell_length_b   9.32829275
_cell_length_c   10.07519074
_cell_angle_alpha   90.16833131
_cell_angle_beta   90.16838570
_cell_angle_gamma   60.27882258
_symmetry_Int_Tables_number   1
_chemical_formula_structural   Al17BN18
_chemical_formula_sum   'Al34 B2 N36'
_cell_volume   761.37600391
_cell_formula_units_Z   2
loop_
 _symmetry_equiv_pos_site_id
 _symmetry_equiv_pos_as_xyz
  1  'x, y, z'
loop_
 _atom_site_type_symbol
 _atom_site_label
 _atom_site_symmetry_multiplicity
 _atom_site_fract_x
 _atom_site_fract_y
 _atom_site_fract_z
 _atom_site_occupancy
  Al  Al0  1  0.10329307  0.10337170  0.40595462  1
  Al  Al1  1  0.22074022  0.20232725  0.15008915  1
  Al  Al2  1  0.77844509  0.09510759  0.89611841  1
  Al  Al3  1  0.44500594  0.09444702  0.40198879  1
  Al  Al4  1  0.56061885  0.19995355  0.14852631  1
  Al  Al5  1  0.11132460  0.09648119  0.88707294  1
  Al  Al6  1  0.21646123  0.20694464  0.65123600  1
  Al  Al7  1  0.78050180  0.09716677  0.40458064  1
  Al  Al8  1  0.88955288  0.20621846  0.14606754  1
  Al  Al9  1  0.44262599  0.08953583  0.90109413  1
  Al  Al10  1  0.56300700  0.19824523  0.65121865  1
  Al  Al11  1  0.11082118  0.42748494  0.39692793  1
  Al  Al12  1  0.22196927  0.53863699  0.12633850  1
  Al  Al13  1  0.77981947  0.42798710  0.88707334  1
  Al  Al14  1  0.89028136  0.53312469  0.65123605  1
  Al  Al15  1  0.44952862  0.43202737  0.33412417  1
  Al  Al16  1  0.54916612  0.54866599  0.07265138  1
  Al  Al17  1  0.11015441  0.42681721  0.90315404  1
  Al  Al18  1  0.22031312  0.53697427  0.62275192  1
  Al  Al19  1  0.78670974  0.41995633  0.40595463  1
  Al  Al20  1  0.88566242  0.53740661  0.15008955  1
  Al  Al21  1  0.44359216  0.43470768  0.83427099  1
  Al  Al22  1  0.55499765  0.53604248  0.59112260  1
  Al  Al23  1  0.11536174  0.76619390  0.33412391  1
  Al  Al24  1  0.23200140  0.86582935  0.07265168  1
  Al  Al25  1  0.77287240  0.75928982  0.90109426  1
  Al  Al26  1  0.88158278  0.87966942  0.65121867  1
  Al  Al27  1  0.44293178  0.75959556  0.33471734  1
  Al  Al28  1  0.55854235  0.87520896  0.15104052  1
  Al  Al29  1  0.11804610  0.76025430  0.83427074  1
  Al  Al30  1  0.21937934  0.87165955  0.59112258  1
  Al  Al31  1  0.77778194  0.76167129  0.40198888  1
  Al  Al32  1  0.88328456  0.87728733  0.14852701  1
  Al  Al33  1  0.55481309  0.87147628  0.65616352  1
  B  B34  1  0.88954496  0.20620801  0.65443235  1
  B  B35  1  0.44152404  0.75818677  0.82248112  1
  N  N36  1  0.22201327  0.20338661  0.34078942  1
  N  N37  1  0.10722816  0.09834435  0.08040263  1
  N  N38  1  0.88790146  0.20456441  0.81772842  1
  N  N39  1  0.78960144  0.10626446  0.59605887  1
  N  N40  1  0.56059858  0.20053276  0.34318960  1
  N  N41  1  0.44308304  0.09487893  0.09040001  1
  N  N42  1  0.22281331  0.20754233  0.83826185  1
  N  N43  1  0.08256661  0.11100510  0.60072003  1
  N  N44  1  0.88926653  0.20593024  0.33484272  1
  N  N45  1  0.77887871  0.09554646  0.08550834  1
  N  N46  1  0.55757631  0.19895938  0.84287659  1
  N  N47  1  0.44287716  0.09180759  0.59187476  1
  N  N48  1  0.22248847  0.53915378  0.35597598  1
  N  N49  1  0.10823585  0.42490117  0.09341791  1
  N  N50  1  0.89087922  0.53947701  0.83826196  1
  N  N51  1  0.79434273  0.39922962  0.60071994  1
  N  N52  1  0.55467802  0.54370990  0.40066408  1
  N  N53  1  0.45097785  0.43050861  0.13704148  1
  N  N54  1  0.22141554  0.53807783  0.86700949  1
  N  N55  1  0.10843709  0.42510036  0.58707223  1
  N  N56  1  0.88672251  0.53867848  0.34078971  1
  N  N57  1  0.78168056  0.42389343  0.08040307  1
  N  N58  1  0.54071595  0.56757400  0.87987029  1
  N  N59  1  0.44513646  0.42658920  0.64008766  1
  N  N60  1  0.22704634  0.87134064  0.40066408  1
  N  N61  1  0.11384014  0.76764531  0.13704151  1
  N  N62  1  0.88229756  0.87423890  0.84287679  1
  N  N63  1  0.77514395  0.75954081  0.59187482  1
  N  N64  1  0.55916856  0.87583373  0.34279158  1
  N  N65  1  0.44248992  0.75915462  0.14554115  1
  N  N66  1  0.25091146  0.85737831  0.87987051  1
  N  N67  1  0.10992669  0.76179802  0.64008760  1
  N  N68  1  0.88386712  0.87726417  0.34318985  1
  N  N69  1  0.77821245  0.75974956  0.09040021  1
  N  N70  1  0.54535962  0.86202314  0.84631353  1
  N  N71  1  0.43829628  0.75495941  0.66020694  1
