# generated using pymatgen
data_Al17BN18
_symmetry_space_group_name_H-M   'P 1'
_cell_length_a   9.35879605
_cell_length_b   9.35879905
_cell_length_c   10.07310281
_cell_angle_alpha   90.11608672
_cell_angle_beta   90.11502922
_cell_angle_gamma   60.12697864
_symmetry_Int_Tables_number   1
_chemical_formula_structural   Al17BN18
_chemical_formula_sum   'Al34 B2 N36'
_cell_volume   765.04519685
_cell_formula_units_Z   2
loop_
 _symmetry_equiv_pos_site_id
 _symmetry_equiv_pos_as_xyz
  1  'x, y, z'
loop_
 _atom_site_type_symbol
 _atom_site_label
 _atom_site_symmetry_multiplicity
 _atom_site_fract_x
 _atom_site_fract_y
 _atom_site_fract_z
 _atom_site_occupancy
  Al  Al0  1  0.10403745  0.10089648  0.39400559  1
  Al  Al1  1  0.22241487  0.20162911  0.13663105  1
  Al  Al2  1  0.77894673  0.09562987  0.82689048  1
  Al  Al3  1  0.43822331  0.09656935  0.39155866  1
  Al  Al4  1  0.55798109  0.20854290  0.06404567  1
  Al  Al5  1  0.11198589  0.09503172  0.87767487  1
  Al  Al6  1  0.21342025  0.21067459  0.63920713  1
  Al  Al7  1  0.77952437  0.09621065  0.36002278  1
  Al  Al8  1  0.88933671  0.20602234  0.13383685  1
  Al  Al9  1  0.43708905  0.09282753  0.87551710  1
  Al  Al10  1  0.55812798  0.21300879  0.57908353  1
  Al  Al11  1  0.10874228  0.42542662  0.38209202  1
  Al  Al12  1  0.22438293  0.54106467  0.07427867  1
  Al  Al13  1  0.77835043  0.42866880  0.87767407  1
  Al  Al14  1  0.89398909  0.53010680  0.63920646  1
  Al  Al15  1  0.44781477  0.42893662  0.31899536  1
  Al  Al16  1  0.54881736  0.54564309  0.06367788  1
  Al  Al17  1  0.10827659  0.42496026  0.89156119  1
  Al  Al18  1  0.22488539  0.54156723  0.56539393  1
  Al  Al19  1  0.78421178  0.42072345  0.39400557  1
  Al  Al20  1  0.88494565  0.53909947  0.13663116  1
  Al  Al21  1  0.43942526  0.43676271  0.81802072  1
  Al  Al22  1  0.55484151  0.53856527  0.58089209  1
  Al  Al23  1  0.11225223  0.76449774  0.31899536  1
  Al  Al24  1  0.22895986  0.86549943  0.06367803  1
  Al  Al25  1  0.77614377  0.75377340  0.87551623  1
  Al  Al26  1  0.89632530  0.87481164  0.57908238  1
  Al  Al27  1  0.44413698  0.76082201  0.32299956  1
  Al  Al28  1  0.54999134  0.86667462  0.06704345  1
  Al  Al29  1  0.12008012  0.75610688  0.81802019  1
  Al  Al30  1  0.22188102  0.87152512  0.58089103  1
  Al  Al31  1  0.77988241  0.75490989  0.39155824  1
  Al  Al32  1  0.89185914  0.87466519  0.06404603  1
  Al  Al33  1  0.55167295  0.86836016  0.58693850  1
  B  B34  1  0.89216321  0.20884671  0.64422840  1
  B  B35  1  0.44342015  0.76010404  0.81459893  1
  N  N36  1  0.22144401  0.20250838  0.32714765  1
  N  N37  1  0.10767378  0.09714920  0.06995891  1
  N  N38  1  0.89379137  0.21047362  0.80630820  1
  N  N39  1  0.79022142  0.10690555  0.61273764  1
  N  N40  1  0.55450879  0.21158786  0.38348756  1
  N  N41  1  0.43909737  0.09577246  0.07391599  1
  N  N42  1  0.21785977  0.20991406  0.82506670  1
  N  N43  1  0.08338448  0.11073914  0.58781735  1
  N  N44  1  0.89139569  0.20808006  0.32397898  1
  N  N45  1  0.77831979  0.09500307  0.09984308  1
  N  N46  1  0.55429125  0.21144740  0.86762892  1
  N  N47  1  0.43755553  0.09886148  0.58991575  1
  N  N48  1  0.22525102  0.54193605  0.37325735  1
  N  N49  1  0.10792289  0.42460564  0.08344410  1
  N  N50  1  0.89323208  0.53454354  0.82506606  1
  N  N51  1  0.79405467  0.40006932  0.58781774  1
  N  N52  1  0.55255294  0.54254403  0.38756406  1
  N  N53  1  0.44734509  0.42811038  0.12896609  1
  N  N54  1  0.22404293  0.54072722  0.88268471  1
  N  N55  1  0.10903043  0.42571413  0.57356975  1
  N  N56  1  0.88582475  0.53812888  0.32714783  1
  N  N57  1  0.78046680  0.42435763  0.06995858  1
  N  N58  1  0.53930908  0.56613210  0.86918675  1
  N  N59  1  0.44017558  0.43218589  0.63167196  1
  N  N60  1  0.22585781  0.86923729  0.38756360  1
  N  N61  1  0.11142542  0.76402880  0.12896626  1
  N  N62  1  0.89476372  0.87097508  0.86762910  1
  N  N63  1  0.78217520  0.75424137  0.58991543  1
  N  N64  1  0.55186509  0.86855094  0.38466052  1
  N  N65  1  0.44317754  0.75986251  0.13491910  1
  N  N66  1  0.24944911  0.85599047  0.86918715  1
  N  N67  1  0.11550099  0.75685987  0.63167146  1
  N  N68  1  0.89490161  0.87119459  0.38348695  1
  N  N69  1  0.77908949  0.75578036  0.07391599  1
  N  N70  1  0.53983517  0.85651839  0.86555501  1
  N  N71  1  0.44276854  0.75945397  0.65213072  1
