# generated using pymatgen
data_Al17BN18
_symmetry_space_group_name_H-M   'P 1'
_cell_length_a   9.32423633
_cell_length_b   9.33039381
_cell_length_c   10.12951580
_cell_angle_alpha   90.10245084
_cell_angle_beta   90.02782700
_cell_angle_gamma   60.16308011
_symmetry_Int_Tables_number   1
_chemical_formula_structural   Al17BN18
_chemical_formula_sum   'Al34 B2 N36'
_cell_volume   764.43956745
_cell_formula_units_Z   2
loop_
 _symmetry_equiv_pos_site_id
 _symmetry_equiv_pos_as_xyz
  1  'x, y, z'
loop_
 _atom_site_type_symbol
 _atom_site_label
 _atom_site_symmetry_multiplicity
 _atom_site_fract_x
 _atom_site_fract_y
 _atom_site_fract_z
 _atom_site_occupancy
  Al  Al0  1  0.10395967  0.10181141  0.39284601  1
  Al  Al1  1  0.22042668  0.20333085  0.13701711  1
  Al  Al2  1  0.78029630  0.09780614  0.87168666  1
  Al  Al3  1  0.44434181  0.09466862  0.39088059  1
  Al  Al4  1  0.55569881  0.20874385  0.09603426  1
  Al  Al5  1  0.11173518  0.09497782  0.87433538  1
  Al  Al6  1  0.21482550  0.20823924  0.63762637  1
  Al  Al7  1  0.77790889  0.10386742  0.39178011  1
  Al  Al8  1  0.88946329  0.20690829  0.13310670  1
  Al  Al9  1  0.44045912  0.08733414  0.88432697  1
  Al  Al10  1  0.55975356  0.20257244  0.62200549  1
  Al  Al11  1  0.10918056  0.42527447  0.38211363  1
  Al  Al12  1  0.22414816  0.54320176  0.07198927  1
  Al  Al13  1  0.77924052  0.42747263  0.87460164  1
  Al  Al14  1  0.89203670  0.53126247  0.63773289  1
  Al  Al15  1  0.44728269  0.43040301  0.31886765  1
  Al  Al16  1  0.54933629  0.55052902  0.06028142  1
  Al  Al17  1  0.10868967  0.42460520  0.88953518  1
  Al  Al18  1  0.22510806  0.54075776  0.56390502  1
  Al  Al19  1  0.78560343  0.42039226  0.39270554  1
  Al  Al20  1  0.88616933  0.53786034  0.13699561  1
  Al  Al21  1  0.43874930  0.43753790  0.81715975  1
  Al  Al22  1  0.55474833  0.53586768  0.57739556  1
  Al  Al23  1  0.11014727  0.76635497  0.31862441  1
  Al  Al24  1  0.23226842  0.86618209  0.06075123  1
  Al  Al25  1  0.77002344  0.75489356  0.88543589  1
  Al  Al26  1  0.89450687  0.87211689  0.57684389  1
  Al  Al27  1  0.44180805  0.75969098  0.32144619  1
  Al  Al28  1  0.55980403  0.87715981  0.13970380  1
  Al  Al29  1  0.11778539  0.75630978  0.81619878  1
  Al  Al30  1  0.21990618  0.87084713  0.57827215  1
  Al  Al31  1  0.77456189  0.75891209  0.38947769  1
  Al  Al32  1  0.89608113  0.87026587  0.06428800  1
  Al  Al33  1  0.55480132  0.86985406  0.64447617  1
  B  B34  1  0.88977328  0.20612631  0.64105603  1
  B  B35  1  0.43988929  0.75657800  0.80971525  1
  N  N36  1  0.22231072  0.20231355  0.32632032  1
  N  N37  1  0.10756851  0.09835927  0.06691441  1
  N  N38  1  0.89023629  0.20615836  0.80317710  1
  N  N39  1  0.79137725  0.10940326  0.58901609  1
  N  N40  1  0.55578100  0.20777802  0.35547427  1
  N  N41  1  0.44139640  0.09451248  0.07396274  1
  N  N42  1  0.22131864  0.20765541  0.82390934  1
  N  N43  1  0.08313867  0.11011772  0.58669828  1
  N  N44  1  0.89001334  0.20637020  0.32073597  1
  N  N45  1  0.77963102  0.10089028  0.06793207  1
  N  N46  1  0.55386900  0.20352234  0.83908365  1
  N  N47  1  0.44105910  0.08926527  0.58130150  1
  N  N48  1  0.22462850  0.54343585  0.37312999  1
  N  N49  1  0.10844225  0.42523435  0.08119514  1
  N  N50  1  0.89174984  0.53712994  0.82394310  1
  N  N51  1  0.79411543  0.39930640  0.58655819  1
  N  N52  1  0.55348563  0.54369181  0.38694760  1
  N  N53  1  0.44602556  0.43440573  0.12675299  1
  N  N54  1  0.22434881  0.54107344  0.88224523  1
  N  N55  1  0.10887568  0.42467982  0.57305112  1
  N  N56  1  0.88623619  0.53843254  0.32603656  1
  N  N57  1  0.78151726  0.42470973  0.06713089  1
  N  N58  1  0.53976173  0.56678533  0.86762310  1
  N  N59  1  0.43905272  0.43137743  0.63029394  1
  N  N60  1  0.22609958  0.86986296  0.38745598  1
  N  N61  1  0.11236594  0.76596639  0.12909239  1
  N  N62  1  0.89506151  0.86635333  0.86918847  1
  N  N63  1  0.77266439  0.75536980  0.58112838  1
  N  N64  1  0.55839302  0.87697290  0.32904175  1
  N  N65  1  0.44243783  0.76074836  0.13305925  1
  N  N66  1  0.25011858  0.85540326  0.86747533  1
  N  N67  1  0.11256073  0.75635637  0.63121764  1
  N  N68  1  0.89355754  0.87232240  0.38176554  1
  N  N69  1  0.77623775  0.75785771  0.07666310  1
  N  N70  1  0.54457882  0.86092741  0.83271041  1
  N  N71  1  0.43760483  0.75387758  0.64818351  1
