# generated using pymatgen
data_Al17BN18
_symmetry_space_group_name_H-M   'P 1'
_cell_length_a   9.32440174
_cell_length_b   9.32439855
_cell_length_c   10.07835025
_cell_angle_alpha   90.14923393
_cell_angle_beta   90.15031501
_cell_angle_gamma   60.25051534
_symmetry_Int_Tables_number   1
_chemical_formula_structural   Al17BN18
_chemical_formula_sum   'Al34 B2 N36'
_cell_volume   760.76528929
_cell_formula_units_Z   2
loop_
 _symmetry_equiv_pos_site_id
 _symmetry_equiv_pos_as_xyz
  1  'x, y, z'
loop_
 _atom_site_type_symbol
 _atom_site_label
 _atom_site_symmetry_multiplicity
 _atom_site_fract_x
 _atom_site_fract_y
 _atom_site_fract_z
 _atom_site_occupancy
  Al  Al0  1  0.10329761  0.10300721  0.40613747  1
  Al  Al1  1  0.22073644  0.20241154  0.15024666  1
  Al  Al2  1  0.77842533  0.09508640  0.89613337  1
  Al  Al3  1  0.44514524  0.09438157  0.40213205  1
  Al  Al4  1  0.56026453  0.20026485  0.14900516  1
  Al  Al5  1  0.11132531  0.09614213  0.88702952  1
  Al  Al6  1  0.21634950  0.20746987  0.65126287  1
  Al  Al7  1  0.78046300  0.09712614  0.40463479  1
  Al  Al8  1  0.88954528  0.20620966  0.14615478  1
  Al  Al9  1  0.44282810  0.08946203  0.90120257  1
  Al  Al10  1  0.56242108  0.19883655  0.65153221  1
  Al  Al11  1  0.10947594  0.42613901  0.39628790  1
  Al  Al12  1  0.22399278  0.54066077  0.09720790  1
  Al  Al13  1  0.77948032  0.42798776  0.88703046  1
  Al  Al14  1  0.89080701  0.53301261  0.65126303  1
  Al  Al15  1  0.44741661  0.43329045  0.33337450  1
  Al  Al16  1  0.54923898  0.54856939  0.07305001  1
  Al  Al17  1  0.10905594  0.42571846  0.90294676  1
  Al  Al18  1  0.22288087  0.53954631  0.59176184  1
  Al  Al19  1  0.78634520  0.41996060  0.40613761  1
  Al  Al20  1  0.88574750  0.53740234  0.15024724  1
  Al  Al21  1  0.44088337  0.43619170  0.83331199  1
  Al  Al22  1  0.55496413  0.53583330  0.59166021  1
  Al  Al23  1  0.11662684  0.76408002  0.33337415  1
  Al  Al24  1  0.23190431  0.86590185  0.07305030  1
  Al  Al25  1  0.77279938  0.75949141  0.90120276  1
  Al  Al26  1  0.88217211  0.87908460  0.65153248  1
  Al  Al27  1  0.44289030  0.75955501  0.33496257  1
  Al  Al28  1  0.55859291  0.87525872  0.15111175  1
  Al  Al29  1  0.11952993  0.75754608  0.83331175  1
  Al  Al30  1  0.21916956  0.87162606  0.59166064  1
  Al  Al31  1  0.77771761  0.76180995  0.40213209  1
  Al  Al32  1  0.88359589  0.87693258  0.14900595  1
  Al  Al33  1  0.55486037  0.87152312  0.65620689  1
  B  B34  1  0.88955397  0.20621750  0.65450396  1
  B  B35  1  0.44145008  0.75811250  0.82264243  1
  N  N36  1  0.22223054  0.20291013  0.34067963  1
  N  N37  1  0.10722786  0.09818188  0.08041106  1
  N  N38  1  0.88790714  0.20457066  0.81780448  1
  N  N39  1  0.78954403  0.10620891  0.59619501  1
  N  N40  1  0.56026842  0.20091900  0.34331799  1
  N  N41  1  0.44309917  0.09500709  0.09038930  1
  N  N42  1  0.22295781  0.20750936  0.83828551  1
  N  N43  1  0.08256256  0.11079704  0.60092533  1
  N  N44  1  0.88927825  0.20594329  0.33488088  1
  N  N45  1  0.77883764  0.09550648  0.08562314  1
  N  N46  1  0.55716082  0.19951543  0.84303575  1
  N  N47  1  0.44289875  0.09191800  0.59190597  1
  N  N48  1  0.22434187  0.54100405  0.37923650  1
  N  N49  1  0.10778272  0.42444859  0.09494126  1
  N  N50  1  0.89084513  0.53962212  0.83828562  1
  N  N51  1  0.79413528  0.39922525  0.60092521  1
  N  N52  1  0.55444595  0.54347318  0.40093293  1
  N  N53  1  0.44880671  0.43198628  0.13944069  1
  N  N54  1  0.22349392  0.54015476  0.88928453  1
  N  N55  1  0.10792259  0.42458709  0.58789603  1
  N  N56  1  0.88624540  0.53889623  0.34067990  1
  N  N57  1  0.78151868  0.42389317  0.08041149  1
  N  N58  1  0.54047955  0.56737089  0.87996140  1
  N  N59  1  0.44227382  0.42837150  0.64212119  1
  N  N60  1  0.22681019  0.87110872  0.40093281  1
  N  N61  1  0.11531763  0.76547332  0.13944020  1
  N  N62  1  0.88285390  0.87382355  0.84303627  1
  N  N63  1  0.77525317  0.75956311  0.59190600  1
  N  N64  1  0.55915357  0.87581951  0.34279032  1
  N  N65  1  0.44256879  0.75923188  0.14566764  1
  N  N66  1  0.25070839  0.85714246  0.87996132  1
  N  N67  1  0.11170681  0.75893687  0.64212097  1
  N  N68  1  0.88425521  0.87693318  0.34331840  1
  N  N69  1  0.77833971  0.75976638  0.09038966  1
  N  N70  1  0.54536772  0.86203167  0.84636704  1
  N  N71  1  0.43838059  0.75504304  0.66035044  1
