# generated using pymatgen
data_Al17BN18
_symmetry_space_group_name_H-M   'P 1'
_cell_length_a   9.32424816
_cell_length_b   9.33089238
_cell_length_c   10.04900894
_cell_angle_alpha   90.01292324
_cell_angle_beta   90.02579556
_cell_angle_gamma   60.17126749
_symmetry_Int_Tables_number   1
_chemical_formula_structural   Al17BN18
_chemical_formula_sum   'Al34 B2 N36'
_cell_volume   758.46884690
_cell_formula_units_Z   2
loop_
 _symmetry_equiv_pos_site_id
 _symmetry_equiv_pos_as_xyz
  1  'x, y, z'
loop_
 _atom_site_type_symbol
 _atom_site_label
 _atom_site_symmetry_multiplicity
 _atom_site_fract_x
 _atom_site_fract_y
 _atom_site_fract_z
 _atom_site_occupancy
  Al  Al0  1  0.09846776  0.09758794  0.38381816  1
  Al  Al1  1  0.22445365  0.20601758  0.05505085  1
  Al  Al2  1  0.77783512  0.09486746  0.80230872  1
  Al  Al3  1  0.44170382  0.09327517  0.30894348  1
  Al  Al4  1  0.55597710  0.20484133  0.05706061  1
  Al  Al5  1  0.11335420  0.09250464  0.86065599  1
  Al  Al6  1  0.22142184  0.20950261  0.56382303  1
  Al  Al7  1  0.77316131  0.09116815  0.30752651  1
  Al  Al8  1  0.89168444  0.20666072  0.12414296  1
  Al  Al9  1  0.44606762  0.09030009  0.80613854  1
  Al  Al10  1  0.56081106  0.20716333  0.55743824  1
  Al  Al11  1  0.11201444  0.42489768  0.31083495  1
  Al  Al12  1  0.22235748  0.53843835  0.06003068  1
  Al  Al13  1  0.77756263  0.43039185  0.86365115  1
  Al  Al14  1  0.88893745  0.53458582  0.60937815  1
  Al  Al15  1  0.44652046  0.42879332  0.30933900  1
  Al  Al16  1  0.54628812  0.54631110  0.05219583  1
  Al  Al17  1  0.11805441  0.42762191  0.80816842  1
  Al  Al18  1  0.22277811  0.53957994  0.55518685  1
  Al  Al19  1  0.78424224  0.41863109  0.38544055  1
  Al  Al20  1  0.88655359  0.53749491  0.09264818  1
  Al  Al21  1  0.44266310  0.43328068  0.80785949  1
  Al  Al22  1  0.55331481  0.53842736  0.57160476  1
  Al  Al23  1  0.11205516  0.76182439  0.30909330  1
  Al  Al24  1  0.22903282  0.86346047  0.05254038  1
  Al  Al25  1  0.77074404  0.76734337  0.80842816  1
  Al  Al26  1  0.89040998  0.87752409  0.55688905  1
  Al  Al27  1  0.44400909  0.75997856  0.31232625  1
  Al  Al28  1  0.55105926  0.87032219  0.05446899  1
  Al  Al29  1  0.11660539  0.75829475  0.80768194  1
  Al  Al30  1  0.22166386  0.87042863  0.57281583  1
  Al  Al31  1  0.77455952  0.76200367  0.31065846  1
  Al  Al32  1  0.88846805  0.87336749  0.05656420  1
  Al  Al33  1  0.55409252  0.87235067  0.56227917  1
  B  B34  1  0.89292997  0.20816750  0.63682312  1
  B  B35  1  0.44381865  0.76024148  0.80334502  1
  N  N36  1  0.22302654  0.20516289  0.37144408  1
  N  N37  1  0.10470007  0.09304012  0.05766594  1
  N  N38  1  0.89441520  0.21148787  0.79747558  1
  N  N39  1  0.78761400  0.10410952  0.61184882  1
  N  N40  1  0.55371107  0.20605909  0.36770767  1
  N  N41  1  0.44372462  0.09245693  0.11713279  1
  N  N42  1  0.22856198  0.20908056  0.86364591  1
  N  N43  1  0.08263622  0.10885287  0.58184947  1
  N  N44  1  0.88939069  0.20801859  0.31300909  1
  N  N45  1  0.77382011  0.09097790  0.11603206  1
  N  N46  1  0.55809233  0.20656616  0.86660983  1
  N  N47  1  0.44683441  0.09479670  0.61781156  1
  N  N48  1  0.22282055  0.53857604  0.36603845  1
  N  N49  1  0.11435613  0.42399733  0.11810068  1
  N  N50  1  0.89082481  0.54160629  0.83374911  1
  N  N51  1  0.79260327  0.39861524  0.58083396  1
  N  N52  1  0.55126652  0.54201362  0.37794648  1
  N  N53  1  0.44591179  0.42789871  0.11765383  1
  N  N54  1  0.22363075  0.53987078  0.87147141  1
  N  N55  1  0.11754556  0.42759634  0.61837595  1
  N  N56  1  0.88690441  0.53788501  0.34445131  1
  N  N57  1  0.77797514  0.42141426  0.05690418  1
  N  N58  1  0.53855942  0.56740557  0.85688109  1
  N  N59  1  0.44233088  0.42700322  0.62006733  1
  N  N60  1  0.22540587  0.86687219  0.37755804  1
  N  N61  1  0.11134867  0.76146995  0.11756640  1
  N  N62  1  0.89033746  0.87524409  0.86679938  1
  N  N63  1  0.77534947  0.76825609  0.61725830  1
  N  N64  1  0.55317500  0.87237889  0.37192637  1
  N  N65  1  0.44376072  0.76008219  0.12315959  1
  N  N66  1  0.25093242  0.85464880  0.85592533  1
  N  N67  1  0.11021676  0.75852055  0.61990481  1
  N  N68  1  0.88930292  0.87172801  0.36753645  1
  N  N69  1  0.77308940  0.76521026  0.11512706  1
  N  N70  1  0.54250967  0.86156104  0.86216770  1
  N  N71  1  0.44596730  0.76175060  0.63999241  1
