# generated using pymatgen
data_Al17BN18
_symmetry_space_group_name_H-M   'P 1'
_cell_length_a   9.36185263
_cell_length_b   9.36185270
_cell_length_c   10.06785540
_cell_angle_alpha   90.14407614
_cell_angle_beta   90.14446636
_cell_angle_gamma   60.12848281
_symmetry_Int_Tables_number   1
_chemical_formula_structural   Al17BN18
_chemical_formula_sum   'Al34 B2 N36'
_cell_volume   765.15634469
_cell_formula_units_Z   2
loop_
 _symmetry_equiv_pos_site_id
 _symmetry_equiv_pos_as_xyz
  1  'x, y, z'
loop_
 _atom_site_type_symbol
 _atom_site_label
 _atom_site_symmetry_multiplicity
 _atom_site_fract_x
 _atom_site_fract_y
 _atom_site_fract_z
 _atom_site_occupancy
  Al  Al0  1  0.10419829  0.10084395  0.39348481  1
  Al  Al1  1  0.22228587  0.20169317  0.13659791  1
  Al  Al2  1  0.78027812  0.09696363  0.85037045  1
  Al  Al3  1  0.43856236  0.09659247  0.39134039  1
  Al  Al4  1  0.55593459  0.20971097  0.06414909  1
  Al  Al5  1  0.11177877  0.09496921  0.87712048  1
  Al  Al6  1  0.21324143  0.21071855  0.63899029  1
  Al  Al7  1  0.78203250  0.09871976  0.38116799  1
  Al  Al8  1  0.88899015  0.20567398  0.13352268  1
  Al  Al9  1  0.43673984  0.09268640  0.87488113  1
  Al  Al10  1  0.55714212  0.21329067  0.58100723  1
  Al  Al11  1  0.10878840  0.42547292  0.38201135  1
  Al  Al12  1  0.22441361  0.54109583  0.07433841  1
  Al  Al13  1  0.77828763  0.42846171  0.87712027  1
  Al  Al14  1  0.89403454  0.52992689  0.63899000  1
  Al  Al15  1  0.44807582  0.42841409  0.31924967  1
  Al  Al16  1  0.54899061  0.54568589  0.06361889  1
  Al  Al17  1  0.10830312  0.42498617  0.89148422  1
  Al  Al18  1  0.22492721  0.54160966  0.56511481  1
  Al  Al19  1  0.78415870  0.42088450  0.39348462  1
  Al  Al20  1  0.88501134  0.53896942  0.13659801  1
  Al  Al21  1  0.43908155  0.43708507  0.81771960  1
  Al  Al22  1  0.55497827  0.53857718  0.58071245  1
  Al  Al23  1  0.11172841  0.76476014  0.31924946  1
  Al  Al24  1  0.22900313  0.86567161  0.06361894  1
  Al  Al25  1  0.77600235  0.75342439  0.87488068  1
  Al  Al26  1  0.89660748  0.87382515  0.58100614  1
  Al  Al27  1  0.44408906  0.76077586  0.32303197  1
  Al  Al28  1  0.54992815  0.86660956  0.06695503  1
  Al  Al29  1  0.12040097  0.75576485  0.81771941  1
  Al  Al30  1  0.22189325  0.87166098  0.58071210  1
  Al  Al31  1  0.77990501  0.75524935  0.39133964  1
  Al  Al32  1  0.89302757  0.87261910  0.06414850  1
  Al  Al33  1  0.55161543  0.86830144  0.58675569  1
  B  B34  1  0.89117018  0.20785399  0.64295169  1
  B  B35  1  0.44338856  0.76007200  0.81446132  1
  N  N36  1  0.22136942  0.20252617  0.32707316  1
  N  N37  1  0.10770646  0.09728080  0.06982557  1
  N  N38  1  0.89231718  0.20900092  0.80490075  1
  N  N39  1  0.79205566  0.10873910  0.59943941  1
  N  N40  1  0.55425192  0.21133460  0.38266587  1
  N  N41  1  0.43922095  0.09565070  0.07405898  1
  N  N42  1  0.21736683  0.20995671  0.82503932  1
  N  N43  1  0.08369626  0.11078327  0.58754659  1
  N  N44  1  0.89051241  0.20719924  0.32287249  1
  N  N45  1  0.78047448  0.09715886  0.08071544  1
  N  N46  1  0.55179012  0.21222672  0.86581566  1
  N  N47  1  0.43741628  0.09872617  0.59013228  1
  N  N48  1  0.22525067  0.54193456  0.37299910  1
  N  N49  1  0.10799661  0.42467913  0.08344480  1
  N  N50  1  0.89327308  0.53405164  0.82503898  1
  N  N51  1  0.79410006  0.40038052  0.58754649  1
  N  N52  1  0.55256449  0.54249767  0.38735695  1
  N  N53  1  0.44744784  0.42823403  0.12898878  1
  N  N54  1  0.22404530  0.54072800  0.88275447  1
  N  N55  1  0.10911654  0.42580105  0.57357786  1
  N  N56  1  0.88584073  0.53805594  0.32707315  1
  N  N57  1  0.78059940  0.42438995  0.06982513  1
  N  N58  1  0.53930453  0.56604980  0.86913073  1
  N  N59  1  0.43995042  0.43273939  0.63152389  1
  N  N60  1  0.22581147  0.86924982  0.38735646  1
  N  N61  1  0.11155100  0.76412973  0.12898853  1
  N  N62  1  0.89554265  0.86847512  0.86581526  1
  N  N63  1  0.78204043  0.75410204  0.59013167  1
  N  N64  1  0.55177312  0.86846084  0.38474039  1
  N  N65  1  0.44318315  0.75986536  0.13483211  1
  N  N66  1  0.24936655  0.85598701  0.86913071  1
  N  N67  1  0.11605622  0.75663257  0.63152357  1
  N  N68  1  0.89464837  0.87093842  0.38266485  1
  N  N69  1  0.77896851  0.75590443  0.07405836  1
  N  N70  1  0.53972227  0.85640651  0.86565624  1
  N  N71  1  0.44277464  0.75945857  0.65209281  1
