# generated using pymatgen
data_Sc5Al13N18
_symmetry_space_group_name_H-M   'P 1'
_cell_length_a   10.29521104
_cell_length_b   10.29840034
_cell_length_c   8.85066192
_cell_angle_alpha   89.93170676
_cell_angle_beta   89.96836352
_cell_angle_gamma   59.76927093
_symmetry_Int_Tables_number   1
_chemical_formula_structural   Sc5Al13N18
_chemical_formula_sum   'Sc10 Al26 N36'
_cell_volume   810.76813327
_cell_formula_units_Z   2
loop_
 _symmetry_equiv_pos_site_id
 _symmetry_equiv_pos_as_xyz
  1  'x, y, z'
loop_
 _atom_site_type_symbol
 _atom_site_label
 _atom_site_symmetry_multiplicity
 _atom_site_fract_x
 _atom_site_fract_y
 _atom_site_fract_z
 _atom_site_occupancy
  Sc  Sc0  1  0.11170672  0.09285104  0.35630635  1
  Sc  Sc1  1  0.22536751  0.21474039  0.10132701  1
  Sc  Sc2  1  0.77062615  0.09772753  0.85634312  1
  Sc  Sc3  1  0.11200277  0.09605964  0.84629663  1
  Sc  Sc4  1  0.55637146  0.53115847  0.09693490  1
  Sc  Sc5  1  0.78390769  0.43192911  0.35158550  1
  Sc  Sc6  1  0.55081945  0.53651190  0.60342981  1
  Sc  Sc7  1  0.21724533  0.86376760  0.10024648  1
  Sc  Sc8  1  0.88825590  0.87183041  0.59696096  1
  Sc  Sc9  1  0.56115419  0.87408025  0.10039785  1
  Al  Al10  1  0.88408051  0.20852952  0.59603754  1
  Al  Al11  1  0.44856588  0.09796430  0.35253960  1
  Al  Al12  1  0.54948633  0.20907386  0.09588314  1
  Al  Al13  1  0.22409082  0.21407449  0.59495815  1
  Al  Al14  1  0.77216004  0.09594686  0.33984246  1
  Al  Al15  1  0.88614255  0.21017438  0.09464869  1
  Al  Al16  1  0.44523236  0.09815351  0.82626978  1
  Al  Al17  1  0.55238361  0.20917949  0.58326109  1
  Al  Al18  1  0.11213634  0.43793336  0.34258928  1
  Al  Al19  1  0.21552948  0.53914817  0.08646232  1
  Al  Al20  1  0.78226079  0.43276685  0.84408882  1
  Al  Al21  1  0.89451960  0.53933629  0.59493558  1
  Al  Al22  1  0.43609608  0.42725684  0.33744227  1
  Al  Al23  1  0.11238785  0.43315576  0.83449113  1
  Al  Al24  1  0.22402498  0.53287057  0.58747356  1
  Al  Al25  1  0.89614155  0.54075635  0.08292155  1
  Al  Al26  1  0.43412423  0.42404127  0.84119719  1
  Al  Al27  1  0.11406930  0.75076497  0.34619139  1
  Al  Al28  1  0.77971512  0.75663878  0.83863082  1
  Al  Al29  1  0.44379809  0.75969022  0.35194842  1
  Al  Al30  1  0.11630514  0.74879603  0.83406634  1
  Al  Al31  1  0.22548633  0.86557392  0.59856879  1
  Al  Al32  1  0.78262871  0.75894329  0.34257603  1
  Al  Al33  1  0.89375742  0.86269481  0.10102796  1
  Al  Al34  1  0.44478781  0.76205262  0.84227312  1
  Al  Al35  1  0.55481335  0.87227002  0.59462253  1
  N  N36  1  0.22796462  0.21998552  0.36742894  1
  N  N37  1  0.09875190  0.10156416  0.10411757  1
  N  N38  1  0.87799147  0.22361972  0.86035850  1
  N  N39  1  0.76586228  0.11166925  0.60731509  1
  N  N40  1  0.55523544  0.20966731  0.36286950  1
  N  N41  1  0.45461562  0.10153720  0.13005598  1
  N  N42  1  0.23170565  0.21569775  0.84647032  1
  N  N43  1  0.11031971  0.09388255  0.60306089  1
  N  N44  1  0.87770531  0.19923847  0.36182269  1
  N  N45  1  0.77513503  0.09684651  0.11178492  1
  N  N46  1  0.53593720  0.21309969  0.87039696  1
  N  N47  1  0.44872020  0.09441846  0.60258345  1
  N  N48  1  0.22404834  0.53634220  0.36830896  1
  N  N49  1  0.10242514  0.44611726  0.11600901  1
  N  N50  1  0.89240300  0.53992331  0.85847711  1
  N  N51  1  0.79491886  0.42318089  0.61129651  1
  N  N52  1  0.54087362  0.54147473  0.35546426  1
  N  N53  1  0.42873006  0.42180687  0.11371944  1
  N  N54  1  0.22002282  0.53836851  0.86444710  1
  N  N55  1  0.11078977  0.43234610  0.61501695  1
  N  N56  1  0.90198457  0.54959014  0.37203975  1
  N  N57  1  0.79654013  0.42550913  0.10263463  1
  N  N58  1  0.55524053  0.53753943  0.85143014  1
  N  N59  1  0.43301757  0.41674198  0.61873306  1
  N  N60  1  0.22863088  0.85334727  0.36337864  1
  N  N61  1  0.10370518  0.74685747  0.12075966  1
  N  N62  1  0.89961811  0.85357718  0.86079448  1
  N  N63  1  0.76951359  0.75364183  0.61447580  1
  N  N64  1  0.55841173  0.86881124  0.36522562  1
  N  N65  1  0.44600149  0.76021790  0.10821179  1
  N  N66  1  0.22792009  0.85268132  0.84814606  1
  N  N67  1  0.12772477  0.74751845  0.60819394  1
  N  N68  1  0.88619648  0.87436629  0.35042829  1
  N  N69  1  0.79469548  0.75045228  0.11292070  1
  N  N70  1  0.55407631  0.87694742  0.84820408  1
  N  N71  1  0.43773992  0.77673711  0.60861220  1
