# generated using pymatgen
data_Sc5Al13N18
_symmetry_space_group_name_H-M   'P 1'
_cell_length_a   9.86479442
_cell_length_b   9.86771601
_cell_length_c   10.07079487
_cell_angle_alpha   89.93826276
_cell_angle_beta   89.93097461
_cell_angle_gamma   59.79335999
_symmetry_Int_Tables_number   1
_chemical_formula_structural   Sc5Al13N18
_chemical_formula_sum   'Sc10 Al26 N36'
_cell_volume   847.20908730
_cell_formula_units_Z   2
loop_
 _symmetry_equiv_pos_site_id
 _symmetry_equiv_pos_as_xyz
  1  'x, y, z'
loop_
 _atom_site_type_symbol
 _atom_site_label
 _atom_site_symmetry_multiplicity
 _atom_site_fract_x
 _atom_site_fract_y
 _atom_site_fract_z
 _atom_site_occupancy
  Sc  Sc0  1  0.11393966  0.09174381  0.38886298  1
  Sc  Sc1  1  0.22206213  0.21452896  0.12314312  1
  Sc  Sc2  1  0.77262984  0.09318426  0.87617016  1
  Sc  Sc3  1  0.11112970  0.09649023  0.85963140  1
  Sc  Sc4  1  0.55179636  0.53450785  0.12135685  1
  Sc  Sc5  1  0.78267755  0.43102284  0.36730900  1
  Sc  Sc6  1  0.55608941  0.53388913  0.62442810  1
  Sc  Sc7  1  0.21580718  0.86967312  0.12131042  1
  Sc  Sc8  1  0.89143365  0.86786813  0.61228135  1
  Sc  Sc9  1  0.56162491  0.87379806  0.12389251  1
  Al  Al10  1  0.88358152  0.21374134  0.63399568  1
  Al  Al11  1  0.44683194  0.09602274  0.38819197  1
  Al  Al12  1  0.55484539  0.20583916  0.13474709  1
  Al  Al13  1  0.22631164  0.21228335  0.63347402  1
  Al  Al14  1  0.77050075  0.09863091  0.37996589  1
  Al  Al15  1  0.88683537  0.20264268  0.13167022  1
  Al  Al16  1  0.44601498  0.10079717  0.87472656  1
  Al  Al17  1  0.54726401  0.20967319  0.62832789  1
  Al  Al18  1  0.11449029  0.43532886  0.38547378  1
  Al  Al19  1  0.21548692  0.53841793  0.13056462  1
  Al  Al20  1  0.78030873  0.43257217  0.88722568  1
  Al  Al21  1  0.89115253  0.53581092  0.63389504  1
  Al  Al22  1  0.43599737  0.42636779  0.38160429  1
  Al  Al23  1  0.11007550  0.43629196  0.87723544  1
  Al  Al24  1  0.22346194  0.53472853  0.63222406  1
  Al  Al25  1  0.89850684  0.54397892  0.12798533  1
  Al  Al26  1  0.43608963  0.42620706  0.88180976  1
  Al  Al27  1  0.12117209  0.75124667  0.38140509  1
  Al  Al28  1  0.78431142  0.75555596  0.87892373  1
  Al  Al29  1  0.44112748  0.76447111  0.38936650  1
  Al  Al30  1  0.11160364  0.74857592  0.88088039  1
  Al  Al31  1  0.22693844  0.86336150  0.63701237  1
  Al  Al32  1  0.77655149  0.75968704  0.38322399  1
  Al  Al33  1  0.88997194  0.86864708  0.13757107  1
  Al  Al34  1  0.44786034  0.75675983  0.87552936  1
  Al  Al35  1  0.55330788  0.87396251  0.63230449  1
  N  N36  1  0.23032258  0.21704987  0.33717377  1
  N  N37  1  0.09409713  0.10516559  0.07345944  1
  N  N38  1  0.87126725  0.22820365  0.82100409  1
  N  N39  1  0.76542595  0.11664633  0.57452592  1
  N  N40  1  0.55278859  0.20537990  0.32624032  1
  N  N41  1  0.45657725  0.10383466  0.06192769  1
  N  N42  1  0.23082526  0.22035537  0.82435492  1
  N  N43  1  0.11232370  0.09245633  0.60604470  1
  N  N44  1  0.88277215  0.19372749  0.31986972  1
  N  N45  1  0.77614089  0.09282534  0.08874130  1
  N  N46  1  0.53817548  0.21749469  0.81562668  1
  N  N47  1  0.44628984  0.09300972  0.57860827  1
  N  N48  1  0.22218515  0.53805209  0.32165959  1
  N  N49  1  0.10336556  0.44651598  0.06455581  1
  N  N50  1  0.88860661  0.53877044  0.82510549  1
  N  N51  1  0.79822650  0.42040753  0.57549472  1
  N  N52  1  0.53679721  0.54670450  0.34119767  1
  N  N53  1  0.42998286  0.41761982  0.07216193  1
  N  N54  1  0.22267082  0.53781373  0.82145450  1
  N  N55  1  0.10897989  0.43236438  0.57743037  1
  N  N56  1  0.90417662  0.55135282  0.31767306  1
  N  N57  1  0.79741969  0.42272916  0.08327044  1
  N  N58  1  0.55767190  0.53364168  0.84322882  1
  N  N59  1  0.43114768  0.41800427  0.56952679  1
  N  N60  1  0.23003810  0.85665582  0.33184906  1
  N  N61  1  0.09936277  0.75022914  0.07220835  1
  N  N62  1  0.89941868  0.85235032  0.82149134  1
  N  N63  1  0.76709440  0.74825758  0.57218601  1
  N  N64  1  0.55360526  0.87368928  0.33703430  1
  N  N65  1  0.44527893  0.76284378  0.06099940  1
  N  N66  1  0.23067180  0.84670907  0.82761683  1
  N  N67  1  0.13513821  0.74628004  0.57023868  1
  N  N68  1  0.88885640  0.87166829  0.33838994  1
  N  N69  1  0.79622285  0.75477300  0.06939138  1
  N  N70  1  0.55743466  0.87315704  0.82644571  1
  N  N71  1  0.43618141  0.77876163  0.57968430  1
