# generated using pymatgen
data_Sc5Al13N18
_symmetry_space_group_name_H-M   'P 1'
_cell_length_a   9.82652665
_cell_length_b   9.82961706
_cell_length_c   10.16583106
_cell_angle_alpha   89.94075263
_cell_angle_beta   89.91538945
_cell_angle_gamma   59.82956768
_symmetry_Int_Tables_number   1
_chemical_formula_structural   Sc5Al13N18
_chemical_formula_sum   'Sc10 Al26 N36'
_cell_volume   848.90919909
_cell_formula_units_Z   2
loop_
 _symmetry_equiv_pos_site_id
 _symmetry_equiv_pos_as_xyz
  1  'x, y, z'
loop_
 _atom_site_type_symbol
 _atom_site_label
 _atom_site_symmetry_multiplicity
 _atom_site_fract_x
 _atom_site_fract_y
 _atom_site_fract_z
 _atom_site_occupancy
  Sc  Sc0  1  0.11332016  0.09242517  0.41904102  1
  Sc  Sc1  1  0.22181833  0.21393185  0.15144865  1
  Sc  Sc2  1  0.77205877  0.09340501  0.90671196  1
  Sc  Sc3  1  0.11135548  0.09572521  0.88692817  1
  Sc  Sc4  1  0.55200956  0.53496778  0.14904934  1
  Sc  Sc5  1  0.78177515  0.43151982  0.39732222  1
  Sc  Sc6  1  0.55568757  0.53423136  0.65471995  1
  Sc  Sc7  1  0.21536821  0.87051045  0.15153664  1
  Sc  Sc8  1  0.89090608  0.86883092  0.64213524  1
  Sc  Sc9  1  0.56163315  0.87407949  0.15336613  1
  Al  Al10  1  0.88316288  0.21325311  0.66211680  1
  Al  Al11  1  0.44675470  0.09624143  0.41606524  1
  Al  Al12  1  0.55426514  0.20614297  0.16240920  1
  Al  Al13  1  0.22638532  0.21222841  0.66145130  1
  Al  Al14  1  0.77092133  0.09842969  0.40608765  1
  Al  Al15  1  0.88704991  0.20339573  0.15934009  1
  Al  Al16  1  0.44606786  0.10044630  0.90179758  1
  Al  Al17  1  0.54782254  0.20960083  0.65539598  1
  Al  Al18  1  0.11440439  0.43512090  0.41238886  1
  Al  Al19  1  0.21569883  0.53842484  0.15774128  1
  Al  Al20  1  0.78040318  0.43217315  0.91421109  1
  Al  Al21  1  0.89157257  0.53578664  0.66160663  1
  Al  Al22  1  0.43606091  0.42685892  0.40904761  1
  Al  Al23  1  0.11031788  0.43588299  0.90499434  1
  Al  Al24  1  0.22327044  0.53462107  0.65944017  1
  Al  Al25  1  0.89811708  0.54348535  0.15508082  1
  Al  Al26  1  0.43620155  0.42615170  0.90925918  1
  Al  Al27  1  0.12017303  0.75164665  0.40926520  1
  Al  Al28  1  0.78379253  0.75558268  0.90662450  1
  Al  Al29  1  0.44129204  0.76424868  0.41721389  1
  Al  Al30  1  0.11239623  0.74865517  0.90832163  1
  Al  Al31  1  0.22718316  0.86309881  0.66403456  1
  Al  Al32  1  0.77731046  0.75977023  0.41075929  1
  Al  Al33  1  0.89032919  0.86824109  0.16446740  1
  Al  Al34  1  0.44757624  0.75745494  0.90370637  1
  Al  Al35  1  0.55346418  0.87384802  0.65913121  1
  N  N36  1  0.23023288  0.21647833  0.36357203  1
  N  N37  1  0.09382504  0.10489192  0.09822536  1
  N  N38  1  0.87066100  0.22751258  0.84711624  1
  N  N39  1  0.76557191  0.11671967  0.59884346  1
  N  N40  1  0.55236483  0.20578398  0.35235312  1
  N  N41  1  0.45652396  0.10357536  0.08762754  1
  N  N42  1  0.23094510  0.22029413  0.85014496  1
  N  N43  1  0.11216827  0.09252501  0.63373515  1
  N  N44  1  0.88325850  0.19461522  0.34575805  1
  N  N45  1  0.77600356  0.09311246  0.11694084  1
  N  N46  1  0.53869526  0.21726865  0.84139784  1
  N  N47  1  0.44621666  0.09318796  0.60485251  1
  N  N48  1  0.22205147  0.53831287  0.34775501  1
  N  N49  1  0.10357735  0.44598928  0.09095733  1
  N  N50  1  0.88892064  0.53867262  0.85134146  1
  N  N51  1  0.79766194  0.42050400  0.60343715  1
  N  N52  1  0.53651765  0.54720122  0.36600803  1
  N  N53  1  0.43024506  0.41761464  0.09806518  1
  N  N54  1  0.22271504  0.53767603  0.84755299  1
  N  N55  1  0.10908222  0.43192707  0.60317291  1
  N  N56  1  0.90367460  0.55103435  0.34354732  1
  N  N57  1  0.79740494  0.42257890  0.10782940  1
  N  N58  1  0.55745661  0.53409038  0.87054288  1
  N  N59  1  0.43132701  0.41841583  0.59560941  1
  N  N60  1  0.22943990  0.85761465  0.35997165  1
  N  N61  1  0.10012806  0.75037279  0.09807665  1
  N  N62  1  0.89917884  0.85309205  0.84934174  1
  N  N63  1  0.76789337  0.74822153  0.59828690  1
  N  N64  1  0.55392027  0.87374032  0.36452061  1
  N  N65  1  0.44437169  0.76428472  0.08748011  1
  N  N66  1  0.23154333  0.84595537  0.85236581  1
  N  N67  1  0.13420126  0.74651876  0.59658911  1
  N  N68  1  0.88923579  0.87149310  0.36324395  1
  N  N69  1  0.79578145  0.75463679  0.09549337  1
  N  N70  1  0.55744584  0.87301023  0.85175374  1
  N  N71  1  0.43654808  0.77817913  0.60543633  1
