# generated using pymatgen
data_Sc5Al13N18
_symmetry_space_group_name_H-M   'P 1'
_cell_length_a   9.83013371
_cell_length_b   9.83309037
_cell_length_c   10.15616265
_cell_angle_alpha   89.93708193
_cell_angle_beta   89.91493975
_cell_angle_gamma   59.83517319
_symmetry_Int_Tables_number   1
_chemical_formula_structural   Sc5Al13N18
_chemical_formula_sum   'Sc10 Al26 N36'
_cell_volume   848.76116427
_cell_formula_units_Z   2
loop_
 _symmetry_equiv_pos_site_id
 _symmetry_equiv_pos_as_xyz
  1  'x, y, z'
loop_
 _atom_site_type_symbol
 _atom_site_label
 _atom_site_symmetry_multiplicity
 _atom_site_fract_x
 _atom_site_fract_y
 _atom_site_fract_z
 _atom_site_occupancy
  Sc  Sc0  1  0.11341606  0.09227362  0.41124860  1
  Sc  Sc1  1  0.22175980  0.21399242  0.14377566  1
  Sc  Sc2  1  0.77210064  0.09334008  0.89879520  1
  Sc  Sc3  1  0.11130459  0.09578466  0.87928525  1
  Sc  Sc4  1  0.55198417  0.53490681  0.14150321  1
  Sc  Sc5  1  0.78196098  0.43139229  0.38940179  1
  Sc  Sc6  1  0.55582265  0.53417342  0.64678093  1
  Sc  Sc7  1  0.21542429  0.87042130  0.14360418  1
  Sc  Sc8  1  0.89100241  0.86872481  0.63422279  1
  Sc  Sc9  1  0.56163622  0.87406202  0.14556318  1
  Al  Al10  1  0.88319576  0.21330302  0.65447757  1
  Al  Al11  1  0.44674048  0.09623032  0.40843240  1
  Al  Al12  1  0.55427457  0.20613288  0.15479917  1
  Al  Al13  1  0.22638172  0.21224492  0.65382849  1
  Al  Al14  1  0.77086222  0.09846352  0.39864983  1
  Al  Al15  1  0.88703181  0.20326719  0.15170993  1
  Al  Al16  1  0.44601477  0.10050509  0.89428102  1
  Al  Al17  1  0.54775582  0.20961119  0.64787694  1
  Al  Al18  1  0.11442159  0.43514046  0.40486450  1
  Al  Al19  1  0.21567160  0.53842181  0.15018629  1
  Al  Al20  1  0.78038505  0.43220466  0.90671003  1
  Al  Al21  1  0.89155841  0.53576954  0.65399038  1
  Al  Al22  1  0.43606905  0.42679908  0.40149760  1
  Al  Al23  1  0.11028151  0.43592215  0.89739231  1
  Al  Al24  1  0.22331801  0.53462636  0.65189899  1
  Al  Al25  1  0.89814645  0.54357116  0.14753436  1
  Al  Al26  1  0.43619748  0.42617384  0.90166296  1
  Al  Al27  1  0.12033492  0.75157874  0.40162990  1
  Al  Al28  1  0.78386181  0.75557693  0.89897934  1
  Al  Al29  1  0.44130812  0.76426090  0.40957442  1
  Al  Al30  1  0.11230863  0.74863096  0.90073621  1
  Al  Al31  1  0.22722672  0.86305623  0.65654652  1
  Al  Al32  1  0.77722201  0.75976309  0.40318779  1
  Al  Al33  1  0.89028181  0.86828758  0.15697152  1
  Al  Al34  1  0.44765138  0.75734226  0.89606207  1
  Al  Al35  1  0.55344824  0.87387475  0.65162718  1
  N  N36  1  0.23020630  0.21653092  0.35610198  1
  N  N37  1  0.09380491  0.10489919  0.09080623  1
  N  N38  1  0.87067709  0.22760251  0.83967156  1
  N  N39  1  0.76552417  0.11673258  0.59158064  1
  N  N40  1  0.55239987  0.20576511  0.34490379  1
  N  N41  1  0.45643608  0.10363461  0.08024524  1
  N  N42  1  0.23091183  0.22031639  0.84273332  1
  N  N43  1  0.11219318  0.09246822  0.62619725  1
  N  N44  1  0.88329028  0.19443291  0.33830678  1
  N  N45  1  0.77596541  0.09306851  0.10926614  1
  N  N46  1  0.53861756  0.21730239  0.83400430  1
  N  N47  1  0.44620584  0.09317668  0.59738790  1
  N  N48  1  0.22210401  0.53827105  0.34030676  1
  N  N49  1  0.10353255  0.44604391  0.08348765  1
  N  N50  1  0.88888950  0.53867265  0.84387960  1
  N  N51  1  0.79781653  0.42043191  0.59572256  1
  N  N52  1  0.53660916  0.54711990  0.35874643  1
  N  N53  1  0.43019552  0.41763149  0.09062507  1
  N  N54  1  0.22271455  0.53768628  0.84011637  1
  N  N55  1  0.10909210  0.43197012  0.59576237  1
  N  N56  1  0.90374809  0.55110634  0.33611875  1
  N  N57  1  0.79739782  0.42258087  0.10059244  1
  N  N58  1  0.55751215  0.53404086  0.86292105  1
  N  N59  1  0.43132633  0.41836918  0.58819216  1
  N  N60  1  0.22956403  0.85748550  0.35225210  1
  N  N61  1  0.10001402  0.75035563  0.09065592  1
  N  N62  1  0.89924294  0.85299596  0.84163536  1
  N  N63  1  0.76780197  0.74821422  0.59085740  1
  N  N64  1  0.55390700  0.87375241  0.35691845  1
  N  N65  1  0.44450855  0.76408198  0.08000472  1
  N  N66  1  0.23150801  0.84598630  0.84509588  1
  N  N67  1  0.13435928  0.74646301  0.58910378  1
  N  N68  1  0.88921498  0.87151527  0.35597997  1
  N  N69  1  0.79582195  0.75466326  0.08801702  1
  N  N70  1  0.55744546  0.87304769  0.84439873  1
  N  N71  1  0.43652747  0.77823618  0.59800884  1
