# generated using pymatgen
data_Sc5Al13N18
_symmetry_space_group_name_H-M   'P 1'
_cell_length_a   9.82648131
_cell_length_b   9.82958951
_cell_length_c   10.16676905
_cell_angle_alpha   89.98005102
_cell_angle_beta   90.01631677
_cell_angle_gamma   59.79987623
_symmetry_Int_Tables_number   1
_chemical_formula_structural   Sc5Al13N18
_chemical_formula_sum   'Sc10 Al26 N36'
_cell_volume   848.72616311
_cell_formula_units_Z   2
loop_
 _symmetry_equiv_pos_site_id
 _symmetry_equiv_pos_as_xyz
  1  'x, y, z'
loop_
 _atom_site_type_symbol
 _atom_site_label
 _atom_site_symmetry_multiplicity
 _atom_site_fract_x
 _atom_site_fract_y
 _atom_site_fract_z
 _atom_site_occupancy
  Sc  Sc0  1  0.11162710  0.09435143  0.31758928  1
  Sc  Sc1  1  0.22183559  0.21363256  0.05197962  1
  Sc  Sc2  1  0.77096924  0.09865758  0.81451839  1
  Sc  Sc3  1  0.11295499  0.09407740  0.78606447  1
  Sc  Sc4  1  0.55624976  0.53168741  0.03824298  1
  Sc  Sc5  1  0.77694232  0.43454760  0.30463218  1
  Sc  Sc6  1  0.55222124  0.53647502  0.56661648  1
  Sc  Sc7  1  0.21775525  0.86833858  0.05516952  1
  Sc  Sc8  1  0.88872226  0.87267647  0.55219993  1
  Sc  Sc9  1  0.56093518  0.87228923  0.05333292  1
  Al  Al10  1  0.88377112  0.20648687  0.54229591  1
  Al  Al11  1  0.44992378  0.09825915  0.30324360  1
  Al  Al12  1  0.54833917  0.20995595  0.05072620  1
  Al  Al13  1  0.22697728  0.21301969  0.54333610  1
  Al  Al14  1  0.77245893  0.09361946  0.28943555  1
  Al  Al15  1  0.88724589  0.21171429  0.04715606  1
  Al  Al16  1  0.44343573  0.09767245  0.78847632  1
  Al  Al17  1  0.55302031  0.20617276  0.54314476  1
  Al  Al18  1  0.11317463  0.43832546  0.29848088  1
  Al  Al19  1  0.21688528  0.53822079  0.04792593  1
  Al  Al20  1  0.78571375  0.43020291  0.79063030  1
  Al  Al21  1  0.89591491  0.53843003  0.54803736  1
  Al  Al22  1  0.43820078  0.42772899  0.29866079  1
  Al  Al23  1  0.11182365  0.43237019  0.79297719  1
  Al  Al24  1  0.22273209  0.53433634  0.54465632  1
  Al  Al25  1  0.89442123  0.53986223  0.04443440  1
  Al  Al26  1  0.43311742  0.42412841  0.79280026  1
  Al  Al27  1  0.11018720  0.75321496  0.29620112  1
  Al  Al28  1  0.77773170  0.75488713  0.79460093  1
  Al  Al29  1  0.44496963  0.75541078  0.30338602  1
  Al  Al30  1  0.12023584  0.74830525  0.79564096  1
  Al  Al31  1  0.22619206  0.86502162  0.54045477  1
  Al  Al32  1  0.78385693  0.76137369  0.29645854  1
  Al  Al33  1  0.89389175  0.86170849  0.04712600  1
  Al  Al34  1  0.44317834  0.76639675  0.78639441  1
  Al  Al35  1  0.55370882  0.87456225  0.54468268  1
  N  N36  1  0.23298136  0.22174024  0.35485190  1
  N  N37  1  0.09485001  0.10416978  0.10605449  1
  N  N38  1  0.88302246  0.22519178  0.86006868  1
  N  N39  1  0.76588260  0.11432960  0.60561142  1
  N  N40  1  0.55781022  0.20616646  0.35414125  1
  N  N41  1  0.45465956  0.10180758  0.11863775  1
  N  N42  1  0.22864972  0.21444488  0.84010555  1
  N  N43  1  0.11219725  0.09367347  0.57121561  1
  N  N44  1  0.87121777  0.19944457  0.35740542  1
  N  N45  1  0.77611193  0.09535615  0.09162825  1
  N  N46  1  0.53126061  0.21636777  0.86265633  1
  N  N47  1  0.44808562  0.09369623  0.59825924  1
  N  N48  1  0.22233286  0.53986294  0.35703212  1
  N  N49  1  0.10134184  0.44663874  0.11037339  1
  N  N50  1  0.89137610  0.53898408  0.85276219  1
  N  N51  1  0.80303083  0.41706619  0.60030854  1
  N  N52  1  0.53867841  0.54174136  0.35438477  1
  N  N53  1  0.43157427  0.42227178  0.10922790  1
  N  N54  1  0.22153565  0.53682350  0.85727881  1
  N  N55  1  0.11141968  0.43109722  0.60447357  1
  N  N56  1  0.90139238  0.55130770  0.36198515  1
  N  N57  1  0.79225316  0.42624137  0.09680156  1
  N  N58  1  0.55555477  0.53816664  0.81967262  1
  N  N59  1  0.43043674  0.41328012  0.60725404  1
  N  N60  1  0.22877262  0.84957167  0.35185661  1
  N  N61  1  0.10294689  0.74861047  0.10907292  1
  N  N62  1  0.90087709  0.84936154  0.85241138  1
  N  N63  1  0.76816092  0.75193343  0.60723877  1
  N  N64  1  0.55774332  0.87089482  0.35215119  1
  N  N65  1  0.44921543  0.75439741  0.11768841  1
  N  N66  1  0.23133130  0.85381265  0.84627027  1
  N  N67  1  0.13168479  0.74805647  0.60659155  1
  N  N68  1  0.88702124  0.87592633  0.34253400  1
  N  N69  1  0.79578707  0.75031966  0.10807075  1
  N  N70  1  0.55393517  0.87495115  0.84179666  1
  N  N71  1  0.43354721  0.78417410  0.60041780  1
