
#======================================================================
# CRYSTAL DATA
#----------------------------------------------------------------------
data_VESTA_phase_1

_chemical_name_common                  'Al   Hf   Mg   N                      '
_cell_length_a                         9.641185
_cell_length_b                         9.621943
_cell_length_c                         10.286566
_cell_angle_alpha                      89.996941
_cell_angle_beta                       89.966095
_cell_angle_gamma                      59.889832
_cell_volume                           825.488291
_space_group_name_H-M_alt              'P 1'
_space_group_IT_number                 1

loop_
_space_group_symop_operation_xyz
   'x, y, z'

loop_
   _atom_site_label
   _atom_site_occupancy
   _atom_site_fract_x
   _atom_site_fract_y
   _atom_site_fract_z
   _atom_site_adp_type
   _atom_site_U_iso_or_equiv
   _atom_site_type_symbol
   Al1        1.0     0.107322     0.101391     0.335751    Uiso  ? Al
   Al2        1.0     0.217861     0.200701     0.084273    Uiso  ? Al
   Al3        1.0     0.777704     0.104413     0.824694    Uiso  ? Al
   Al4        1.0     0.881574     0.216897     0.582772    Uiso  ? Al
   Al5        1.0     0.438661     0.094731     0.341545    Uiso  ? Al
   Al6        1.0     0.107482     0.102939     0.838088    Uiso  ? Al
   Al7        1.0     0.217076     0.216447     0.581170    Uiso  ? Al
   Al8        1.0     0.783143     0.095111     0.341933    Uiso  ? Al
   Al9        1.0     0.895339     0.204965     0.084278    Uiso  ? Al
   Al10       1.0     0.433680     0.102121     0.825375    Uiso  ? Al
   Al11       1.0     0.557163     0.203145     0.578989    Uiso  ? Al
   Al12       1.0     0.113656     0.422639     0.332579    Uiso  ? Al
   Al13       1.0     0.220369     0.544056     0.147788    Uiso  ? Al
   Al14       1.0     0.780016     0.422535     0.836620    Uiso  ? Al
   Al15       1.0     0.891866     0.535680     0.612724    Uiso  ? Al
   Al16       1.0     0.439589     0.436085     0.399727    Uiso  ? Al
   Al17       1.0     0.551588     0.545009     0.148866    Uiso  ? Al
   Al18       1.0     0.226481     0.535362     0.652687    Uiso  ? Al
   Al19       1.0     0.780432     0.422684     0.331386    Uiso  ? Al
   Al20       1.0     0.890312     0.534229     0.124696    Uiso  ? Al
   Al21       1.0     0.438176     0.441136     0.896661    Uiso  ? Al
   Al22       1.0     0.555140     0.533592     0.651129    Uiso  ? Al
   Al23       1.0     0.113741     0.753510     0.400415    Uiso  ? Al
   Al24       1.0     0.449710     0.755373     0.401243    Uiso  ? Al
   Al25       1.0     0.555673     0.860657     0.161920    Uiso  ? Al
   Al26       1.0     0.113326     0.762978     0.902285    Uiso  ? Al
   Al27       1.0     0.778358     0.757338     0.402589    Uiso  ? Al
   Al28       1.0     0.900856     0.861179     0.161002    Uiso  ? Al
   Al29       1.0     0.442241     0.760791     0.901171    Uiso  ? Al
   Al30       1.0     0.559316     0.865940     0.643748    Uiso  ? Al
   Hf1        1.0     0.559487     0.197351     0.094362    Uiso  ? Hf
   Hf2        1.0     0.773290     0.770059     0.902354    Uiso  ? Hf
   Hf3        1.0     0.222099     0.871065     0.630220    Uiso  ? Hf
   Mg1        1.0     0.115512     0.421941     0.847993    Uiso  ? Mg
   Mg2        1.0     0.225252     0.867290     0.147311    Uiso  ? Mg
   Mg3        1.0     0.887884     0.870488     0.637869    Uiso  ? Mg
   N1         1.0     0.221665     0.205940     0.395801    Uiso  ? N
   N2         1.0     0.101161     0.111610     0.151511    Uiso  ? N
   N3         1.0     0.887945     0.205018     0.896685    Uiso  ? N
   N4         1.0     0.765771     0.119337     0.640273    Uiso  ? N
   N5         1.0     0.557976     0.200189     0.383550    Uiso  ? N
   N6         1.0     0.431956     0.089244     0.152424    Uiso  ? N
   N7         1.0     0.232618     0.186265     0.901251    Uiso  ? N
   N8         1.0     0.096657     0.121816     0.646151    Uiso  ? N
   N9         1.0     0.887712     0.207917     0.397475    Uiso  ? N
   N10        1.0     0.795668     0.090482     0.152028    Uiso  ? N
   N11        1.0     0.557033     0.198682     0.888604    Uiso  ? N
   N12        1.0     0.439940     0.101205     0.635533    Uiso  ? N
   N13        1.0     0.227554     0.538888     0.335757    Uiso  ? N
   N14        1.0     0.116647     0.420457     0.138910    Uiso  ? N
   N15        1.0     0.881319     0.531202     0.888177    Uiso  ? N
   N16        1.0     0.780679     0.427730     0.644373    Uiso  ? N
   N17        1.0     0.549423     0.540583     0.338512    Uiso  ? N
   N18        1.0     0.435936     0.446549     0.087424    Uiso  ? N
   N19        1.0     0.231172     0.550593     0.837305    Uiso  ? N
   N20        1.0     0.110685     0.428904     0.632898    Uiso  ? N
   N21        1.0     0.889359     0.537338     0.355877    Uiso  ? N
   N22        1.0     0.777949     0.421296     0.141711    Uiso  ? N
   N23        1.0     0.550957     0.540430     0.839411    Uiso  ? N
   N24        1.0     0.442259     0.432245     0.586846    Uiso  ? N
   N25        1.0     0.222055     0.874662     0.373234    Uiso  ? N
   N26        1.0     0.103977     0.753979     0.087747    Uiso  ? N
   N27        1.0     0.898908     0.880137     0.844396    Uiso  ? N
   N28        1.0     0.770103     0.755484     0.588702    Uiso  ? N
   N29        1.0     0.558205     0.864230     0.348182    Uiso  ? N
   N30        1.0     0.460940     0.754164     0.085260    Uiso  ? N
   N31        1.0     0.223709     0.870787     0.842491    Uiso  ? N
   N32        1.0     0.117554     0.740989     0.581726    Uiso  ? N
   N33        1.0     0.893374     0.864256     0.349379    Uiso  ? N
   N34        1.0     0.773737     0.769334     0.108493    Uiso  ? N
   N35        1.0     0.541182     0.873565     0.831012    Uiso  ? N
   N36        1.0     0.464587     0.746615     0.586495    Uiso  ? N
