
#======================================================================
# CRYSTAL DATA
#----------------------------------------------------------------------
data_VESTA_phase_1

_chemical_name_common                  'Al   Hf   Mg   N                      '
_cell_length_a                         9.621636
_cell_length_b                         9.642461
_cell_length_c                         10.123990
_cell_angle_alpha                      89.992065
_cell_angle_beta                       89.635468
_cell_angle_gamma                      60.044601
_cell_volume                           813.771950
_space_group_name_H-M_alt              'P 1'
_space_group_IT_number                 1

loop_
_space_group_symop_operation_xyz
   'x, y, z'

loop_
   _atom_site_label
   _atom_site_occupancy
   _atom_site_fract_x
   _atom_site_fract_y
   _atom_site_fract_z
   _atom_site_adp_type
   _atom_site_U_iso_or_equiv
   _atom_site_type_symbol
   Al1        1.0     0.114498     0.096378     0.397191    Uiso  ? Al
   Al2        1.0     0.217141     0.207890     0.157270    Uiso  ? Al
   Al3        1.0     0.784474     0.101645     0.830860    Uiso  ? Al
   Al4        1.0     0.878218     0.213764     0.584093    Uiso  ? Al
   Al5        1.0     0.443763     0.094503     0.405433    Uiso  ? Al
   Al6        1.0     0.115424     0.095173     0.910485    Uiso  ? Al
   Al7        1.0     0.218234     0.211465     0.653708    Uiso  ? Al
   Al8        1.0     0.783390     0.093357     0.343924    Uiso  ? Al
   Al9        1.0     0.893186     0.205715     0.098934    Uiso  ? Al
   Al10       1.0     0.433138     0.092921     0.897826    Uiso  ? Al
   Al11       1.0     0.545705     0.212060     0.654306    Uiso  ? Al
   Al12       1.0     0.113102     0.427275     0.402497    Uiso  ? Al
   Al13       1.0     0.217707     0.540815     0.155309    Uiso  ? Al
   Al14       1.0     0.774443     0.428775     0.904174    Uiso  ? Al
   Al15       1.0     0.887301     0.534502     0.648605    Uiso  ? Al
   Al16       1.0     0.443459     0.429043     0.405165    Uiso  ? Al
   Al17       1.0     0.556818     0.544522     0.153734    Uiso  ? Al
   Al18       1.0     0.221656     0.535575     0.654309    Uiso  ? Al
   Al19       1.0     0.772379     0.436100     0.399051    Uiso  ? Al
   Al20       1.0     0.894574     0.533030     0.159583    Uiso  ? Al
   Al21       1.0     0.437588     0.439622     0.898042    Uiso  ? Al
   Al22       1.0     0.560267     0.533632     0.653291    Uiso  ? Al
   Al23       1.0     0.116003     0.754343     0.401894    Uiso  ? Al
   Al24       1.0     0.446735     0.758865     0.401851    Uiso  ? Al
   Al25       1.0     0.554468     0.866371     0.158757    Uiso  ? Al
   Al26       1.0     0.113639     0.759521     0.910190    Uiso  ? Al
   Al27       1.0     0.776715     0.757923     0.407675    Uiso  ? Al
   Al28       1.0     0.900846     0.857440     0.161116    Uiso  ? Al
   Al29       1.0     0.444636     0.758027     0.907869    Uiso  ? Al
   Al30       1.0     0.555638     0.871607     0.647602    Uiso  ? Al
   Hf1        1.0     0.554015     0.206168     0.130462    Uiso  ? Hf
   Hf2        1.0     0.778340     0.762585     0.898401    Uiso  ? Hf
   Hf3        1.0     0.219573     0.874123     0.646989    Uiso  ? Hf
   Mg1        1.0     0.115895     0.422821     0.903089    Uiso  ? Mg
   Mg2        1.0     0.223885     0.870726     0.154762    Uiso  ? Mg
   Mg3        1.0     0.887039     0.870140     0.635634    Uiso  ? Mg
   N1         1.0     0.225941     0.205099     0.346910    Uiso  ? N
   N2         1.0     0.112484     0.104545     0.099186    Uiso  ? N
   N3         1.0     0.888085     0.205109     0.893587    Uiso  ? N
   N4         1.0     0.767712     0.114852     0.640551    Uiso  ? N
   N5         1.0     0.550543     0.207774     0.344389    Uiso  ? N
   N6         1.0     0.436510     0.080667     0.089894    Uiso  ? N
   N7         1.0     0.225513     0.191686     0.837720    Uiso  ? N
   N8         1.0     0.103557     0.113005     0.589991    Uiso  ? N
   N9         1.0     0.886196     0.208147     0.382871    Uiso  ? N
   N10        1.0     0.799058     0.083450     0.146961    Uiso  ? N
   N11        1.0     0.548903     0.207858     0.860693    Uiso  ? N
   N12        1.0     0.443550     0.095350     0.595197    Uiso  ? N
   N13        1.0     0.226392     0.535451     0.345075    Uiso  ? N
   N14        1.0     0.114196     0.425610     0.109140    Uiso  ? N
   N15        1.0     0.882130     0.530013     0.836587    Uiso  ? N
   N16        1.0     0.771745     0.435474     0.589592    Uiso  ? N
   N17        1.0     0.553317     0.539391     0.343587    Uiso  ? N
   N18        1.0     0.436304     0.448739     0.089383    Uiso  ? N
   N19        1.0     0.226553     0.548880     0.839790    Uiso  ? N
   N20        1.0     0.110883     0.427888     0.594074    Uiso  ? N
   N21        1.0     0.889665     0.538564     0.348101    Uiso  ? N
   N22        1.0     0.775799     0.433388     0.099327    Uiso  ? N
   N23        1.0     0.556650     0.538761     0.842714    Uiso  ? N
   N24        1.0     0.444004     0.427355     0.595484    Uiso  ? N
   N25        1.0     0.223378     0.872497     0.366073    Uiso  ? N
   N26        1.0     0.107149     0.750739     0.096539    Uiso  ? N
   N27        1.0     0.899889     0.878487     0.849071    Uiso  ? N
   N28        1.0     0.769577     0.751995     0.595424    Uiso  ? N
   N29        1.0     0.555033     0.873151     0.347803    Uiso  ? N
   N30        1.0     0.461672     0.753019     0.092683    Uiso  ? N
   N31        1.0     0.223096     0.871924     0.856889    Uiso  ? N
   N32        1.0     0.120420     0.742576     0.586507    Uiso  ? N
   N33        1.0     0.892075     0.864609     0.354487    Uiso  ? N
   N34        1.0     0.778674     0.759958     0.107321    Uiso  ? N
   N35        1.0     0.540028     0.877950     0.837160    Uiso  ? N
   N36        1.0     0.459170     0.750879     0.591672    Uiso  ? N
