
#======================================================================
# CRYSTAL DATA
#----------------------------------------------------------------------
data_VESTA_phase_1

_chemical_name_common                  'Al   Hf   Mg   N                      '
_cell_length_a                         9.599864
_cell_length_b                         9.627837
_cell_length_c                         10.086095
_cell_angle_alpha                      90.063972
_cell_angle_beta                       89.764000
_cell_angle_gamma                      59.967262
_cell_volume                           807.044579
_space_group_name_H-M_alt              'P 1'
_space_group_IT_number                 1

loop_
_space_group_symop_operation_xyz
   'x, y, z'

loop_
   _atom_site_label
   _atom_site_occupancy
   _atom_site_fract_x
   _atom_site_fract_y
   _atom_site_fract_z
   _atom_site_adp_type
   _atom_site_U_iso_or_equiv
   _atom_site_type_symbol
   Al1        1.0     0.109197     0.099798     0.399529    Uiso  ? Al
   Al2        1.0     0.215997     0.207496     0.154262    Uiso  ? Al
   Al3        1.0     0.781602     0.096795     0.870048    Uiso  ? Al
   Al4        1.0     0.882943     0.217792     0.648918    Uiso  ? Al
   Al5        1.0     0.442343     0.093403     0.405118    Uiso  ? Al
   Al6        1.0     0.108891     0.099128     0.907458    Uiso  ? Al
   Al7        1.0     0.219259     0.211476     0.652532    Uiso  ? Al
   Al8        1.0     0.779313     0.096774     0.405027    Uiso  ? Al
   Al9        1.0     0.893902     0.206621     0.154237    Uiso  ? Al
   Al10       1.0     0.433544     0.093115     0.896702    Uiso  ? Al
   Al11       1.0     0.550239     0.209538     0.650664    Uiso  ? Al
   Al12       1.0     0.113158     0.427064     0.401084    Uiso  ? Al
   Al13       1.0     0.217344     0.541194     0.154102    Uiso  ? Al
   Al14       1.0     0.776988     0.424717     0.903984    Uiso  ? Al
   Al15       1.0     0.887925     0.535211     0.647432    Uiso  ? Al
   Al16       1.0     0.442964     0.430786     0.405808    Uiso  ? Al
   Al17       1.0     0.558417     0.542415     0.152437    Uiso  ? Al
   Al18       1.0     0.222383     0.535344     0.654005    Uiso  ? Al
   Al19       1.0     0.776897     0.428461     0.402414    Uiso  ? Al
   Al20       1.0     0.894229     0.532541     0.158520    Uiso  ? Al
   Al21       1.0     0.438883     0.438046     0.897206    Uiso  ? Al
   Al22       1.0     0.560577     0.533668     0.652619    Uiso  ? Al
   Al23       1.0     0.115089     0.755520     0.400277    Uiso  ? Al
   Al24       1.0     0.447606     0.758034     0.400378    Uiso  ? Al
   Al25       1.0     0.554578     0.866350     0.157786    Uiso  ? Al
   Al26       1.0     0.114217     0.759466     0.909936    Uiso  ? Al
   Al27       1.0     0.777074     0.757904     0.405782    Uiso  ? Al
   Al28       1.0     0.896395     0.866868     0.161022    Uiso  ? Al
   Al29       1.0     0.443996     0.758012     0.907174    Uiso  ? Al
   Al30       1.0     0.556144     0.871205     0.646958    Uiso  ? Al
   Hf1        1.0     0.556264     0.204832     0.140077    Uiso  ? Hf
   Hf2        1.0     0.778699     0.761252     0.898757    Uiso  ? Hf
   Hf3        1.0     0.219800     0.874415     0.644460    Uiso  ? Hf
   Mg1        1.0     0.116367     0.422823     0.902755    Uiso  ? Mg
   Mg2        1.0     0.222137     0.873310     0.153081    Uiso  ? Mg
   Mg3        1.0     0.887569     0.870377     0.637442    Uiso  ? Mg
   N1         1.0     0.224927     0.204413     0.345328    Uiso  ? N
   N2         1.0     0.104189     0.109455     0.093605    Uiso  ? N
   N3         1.0     0.889827     0.209197     0.840096    Uiso  ? N
   N4         1.0     0.768739     0.112634     0.599587    Uiso  ? N
   N5         1.0     0.554052     0.205941     0.349530    Uiso  ? N
   N6         1.0     0.437050     0.081651     0.088905    Uiso  ? N
   N7         1.0     0.225110     0.191752     0.837090    Uiso  ? N
   N8         1.0     0.099261     0.116244     0.588706    Uiso  ? N
   N9         1.0     0.888240     0.208022     0.345372    Uiso  ? N
   N10        1.0     0.796817     0.084292     0.102737    Uiso  ? N
   N11        1.0     0.550755     0.206644     0.850875    Uiso  ? N
   N12        1.0     0.443448     0.094438     0.594452    Uiso  ? N
   N13        1.0     0.226291     0.535687     0.344271    Uiso  ? N
   N14        1.0     0.113869     0.425817     0.108595    Uiso  ? N
   N15        1.0     0.882348     0.529543     0.836444    Uiso  ? N
   N16        1.0     0.775156     0.430310     0.590595    Uiso  ? N
   N17        1.0     0.555860     0.537388     0.343548    Uiso  ? N
   N18        1.0     0.437509     0.445927     0.088787    Uiso  ? N
   N19        1.0     0.226738     0.548656     0.840053    Uiso  ? N
   N20        1.0     0.111585     0.427944     0.593260    Uiso  ? N
   N21        1.0     0.889080     0.537344     0.348094    Uiso  ? N
   N22        1.0     0.778836     0.426665     0.095671    Uiso  ? N
   N23        1.0     0.557295     0.538257     0.842772    Uiso  ? N
   N24        1.0     0.444201     0.427864     0.595695    Uiso  ? N
   N25        1.0     0.222679     0.874248     0.366691    Uiso  ? N
   N26        1.0     0.105336     0.752243     0.096948    Uiso  ? N
   N27        1.0     0.899989     0.877694     0.844628    Uiso  ? N
   N28        1.0     0.770192     0.751949     0.594327    Uiso  ? N
   N29        1.0     0.554896     0.872989     0.346925    Uiso  ? N
   N30        1.0     0.461353     0.752466     0.092720    Uiso  ? N
   N31        1.0     0.221758     0.873057     0.855510    Uiso  ? N
   N32        1.0     0.120831     0.742160     0.585601    Uiso  ? N
   N33        1.0     0.888864     0.871391     0.353518    Uiso  ? N
   N34        1.0     0.779057     0.759929     0.107840    Uiso  ? N
   N35        1.0     0.540352     0.877268     0.836970    Uiso  ? N
   N36        1.0     0.460325     0.750027     0.590833    Uiso  ? N
