
#======================================================================
# CRYSTAL DATA
#----------------------------------------------------------------------
data_VESTA_phase_1

_chemical_name_common                  'Al   Hf   Mg   N                      '
_cell_length_a                         9.604202
_cell_length_b                         9.616347
_cell_length_c                         10.287165
_cell_angle_alpha                      89.973000
_cell_angle_beta                       89.909569
_cell_angle_gamma                      59.984726
_cell_volume                           822.678843
_space_group_name_H-M_alt              'P 1'
_space_group_IT_number                 1

loop_
_space_group_symop_operation_xyz
   'x, y, z'

loop_
   _atom_site_label
   _atom_site_occupancy
   _atom_site_fract_x
   _atom_site_fract_y
   _atom_site_fract_z
   _atom_site_adp_type
   _atom_site_U_iso_or_equiv
   _atom_site_type_symbol
   Al1        1.0     0.107836     0.101766     0.333396    Uiso  ? Al
   Al2        1.0     0.218883     0.199408     0.084574    Uiso  ? Al
   Al3        1.0     0.776290     0.105266     0.825211    Uiso  ? Al
   Al4        1.0     0.882863     0.212588     0.581237    Uiso  ? Al
   Al5        1.0     0.438390     0.094584     0.339271    Uiso  ? Al
   Al6        1.0     0.107702     0.102939     0.837794    Uiso  ? Al
   Al7        1.0     0.220574     0.209347     0.582605    Uiso  ? Al
   Al8        1.0     0.783522     0.094072     0.338856    Uiso  ? Al
   Al9        1.0     0.896281     0.204490     0.086217    Uiso  ? Al
   Al10       1.0     0.434816     0.102578     0.826152    Uiso  ? Al
   Al11       1.0     0.556747     0.203941     0.578357    Uiso  ? Al
   Al12       1.0     0.110372     0.433380     0.398647    Uiso  ? Al
   Al13       1.0     0.216149     0.540289     0.149891    Uiso  ? Al
   Al14       1.0     0.775634     0.427015     0.880107    Uiso  ? Al
   Al15       1.0     0.888106     0.537271     0.642367    Uiso  ? Al
   Al16       1.0     0.439195     0.435955     0.398537    Uiso  ? Al
   Al17       1.0     0.557831     0.542868     0.149528    Uiso  ? Al
   Al18       1.0     0.223752     0.534304     0.650367    Uiso  ? Al
   Al19       1.0     0.774519     0.431626     0.389163    Uiso  ? Al
   Al20       1.0     0.896919     0.528729     0.158179    Uiso  ? Al
   Al21       1.0     0.436833     0.442209     0.895337    Uiso  ? Al
   Al22       1.0     0.559178     0.531876     0.646631    Uiso  ? Al
   Al23       1.0     0.112789     0.755320     0.399114    Uiso  ? Al
   Al24       1.0     0.448598     0.757322     0.400573    Uiso  ? Al
   Al25       1.0     0.558385     0.858422     0.159671    Uiso  ? Al
   Al26       1.0     0.113082     0.762269     0.902613    Uiso  ? Al
   Al27       1.0     0.778109     0.757762     0.404524    Uiso  ? Al
   Al28       1.0     0.900668     0.859182     0.158358    Uiso  ? Al
   Al29       1.0     0.441859     0.762168     0.901019    Uiso  ? Al
   Al30       1.0     0.560518     0.865857     0.644085    Uiso  ? Al
   Hf1        1.0     0.558111     0.200158     0.094037    Uiso  ? Hf
   Hf2        1.0     0.778221     0.761851     0.900060    Uiso  ? Hf
   Hf3        1.0     0.220770     0.871568     0.629727    Uiso  ? Hf
   Mg1        1.0     0.115062     0.428637     0.896530    Uiso  ? Mg
   Mg2        1.0     0.226191     0.865260     0.147088    Uiso  ? Mg
   Mg3        1.0     0.886254     0.871312     0.637949    Uiso  ? Mg
   N1         1.0     0.223835     0.201157     0.396557    Uiso  ? N
   N2         1.0     0.102608     0.109982     0.150523    Uiso  ? N
   N3         1.0     0.889966     0.201998     0.895931    Uiso  ? N
   N4         1.0     0.765103     0.119434     0.641655    Uiso  ? N
   N5         1.0     0.557959     0.200322     0.382793    Uiso  ? N
   N6         1.0     0.433726     0.087868     0.151006    Uiso  ? N
   N7         1.0     0.233956     0.183640     0.899392    Uiso  ? N
   N8         1.0     0.094910     0.123483     0.648362    Uiso  ? N
   N9         1.0     0.891213     0.201317     0.394638    Uiso  ? N
   N10        1.0     0.795444     0.089392     0.149904    Uiso  ? N
   N11        1.0     0.555746     0.201719     0.888457    Uiso  ? N
   N12        1.0     0.440659     0.101284     0.637359    Uiso  ? N
   N13        1.0     0.224398     0.537265     0.337034    Uiso  ? N
   N14        1.0     0.112586     0.426607     0.103595    Uiso  ? N
   N15        1.0     0.884347     0.531239     0.828585    Uiso  ? N
   N16        1.0     0.772506     0.435426     0.590023    Uiso  ? N
   N17        1.0     0.552058     0.539931     0.337912    Uiso  ? N
   N18        1.0     0.434653     0.449228     0.087653    Uiso  ? N
   N19        1.0     0.228144     0.548697     0.833530    Uiso  ? N
   N20        1.0     0.108300     0.435426     0.589346    Uiso  ? N
   N21        1.0     0.890723     0.537723     0.344596    Uiso  ? N
   N22        1.0     0.777333     0.429417     0.106868    Uiso  ? N
   N23        1.0     0.554994     0.538660     0.835243    Uiso  ? N
   N24        1.0     0.440790     0.432839     0.586000    Uiso  ? N
   N25        1.0     0.222146     0.874209     0.371847    Uiso  ? N
   N26        1.0     0.105340     0.752005     0.087745    Uiso  ? N
   N27        1.0     0.895946     0.880315     0.845997    Uiso  ? N
   N28        1.0     0.770890     0.754579     0.588067    Uiso  ? N
   N29        1.0     0.559282     0.863600     0.346373    Uiso  ? N
   N30        1.0     0.461089     0.753457     0.084461    Uiso  ? N
   N31        1.0     0.223732     0.869420     0.841642    Uiso  ? N
   N32        1.0     0.116182     0.741875     0.581050    Uiso  ? N
   N33        1.0     0.892745     0.863620     0.347277    Uiso  ? N
   N34        1.0     0.778363     0.760671     0.105449    Uiso  ? N
   N35        1.0     0.544496     0.873305     0.832458    Uiso  ? N
   N36        1.0     0.462568     0.749248     0.586539    Uiso  ? N
