
#======================================================================
# CRYSTAL DATA
#----------------------------------------------------------------------
data_VESTA_phase_1

_chemical_name_common                  'Al   Hf   Mg   N                      '
_cell_length_a                         9.613045
_cell_length_b                         9.613800
_cell_length_c                         10.309339
_cell_angle_alpha                      89.948425
_cell_angle_beta                       89.868187
_cell_angle_gamma                      59.961311
_cell_volume                           824.796620
_space_group_name_H-M_alt              'P 1'
_space_group_IT_number                 1

loop_
_space_group_symop_operation_xyz
   'x, y, z'

loop_
   _atom_site_label
   _atom_site_occupancy
   _atom_site_fract_x
   _atom_site_fract_y
   _atom_site_fract_z
   _atom_site_adp_type
   _atom_site_U_iso_or_equiv
   _atom_site_type_symbol
   Al1        1.0     0.108283     0.101482     0.333773    Uiso  ? Al
   Al2        1.0     0.219099     0.198877     0.084590    Uiso  ? Al
   Al3        1.0     0.776393     0.105480     0.825380    Uiso  ? Al
   Al4        1.0     0.880995     0.215686     0.580621    Uiso  ? Al
   Al5        1.0     0.438453     0.094586     0.339299    Uiso  ? Al
   Al6        1.0     0.107443     0.103264     0.838237    Uiso  ? Al
   Al7        1.0     0.220801     0.208776     0.582634    Uiso  ? Al
   Al8        1.0     0.783242     0.093975     0.339421    Uiso  ? Al
   Al9        1.0     0.894817     0.207856     0.085238    Uiso  ? Al
   Al10       1.0     0.434709     0.102461     0.826057    Uiso  ? Al
   Al11       1.0     0.557133     0.203363     0.578492    Uiso  ? Al
   Al12       1.0     0.110348     0.433443     0.399537    Uiso  ? Al
   Al13       1.0     0.216451     0.540197     0.150436    Uiso  ? Al
   Al14       1.0     0.779254     0.420499     0.829309    Uiso  ? Al
   Al15       1.0     0.890676     0.539403     0.643631    Uiso  ? Al
   Al16       1.0     0.438701     0.435950     0.399100    Uiso  ? Al
   Al17       1.0     0.553713     0.544619     0.149412    Uiso  ? Al
   Al18       1.0     0.223670     0.534218     0.650919    Uiso  ? Al
   Al19       1.0     0.778828     0.422822     0.339607    Uiso  ? Al
   Al20       1.0     0.899695     0.531669     0.158454    Uiso  ? Al
   Al21       1.0     0.436817     0.442609     0.895731    Uiso  ? Al
   Al22       1.0     0.553453     0.534370     0.646911    Uiso  ? Al
   Al23       1.0     0.112800     0.755311     0.399385    Uiso  ? Al
   Al24       1.0     0.448711     0.757098     0.401023    Uiso  ? Al
   Al25       1.0     0.558451     0.858304     0.160266    Uiso  ? Al
   Al26       1.0     0.113056     0.762116     0.902643    Uiso  ? Al
   Al27       1.0     0.778031     0.757146     0.404928    Uiso  ? Al
   Al28       1.0     0.900943     0.859708     0.158686    Uiso  ? Al
   Al29       1.0     0.442148     0.761451     0.900969    Uiso  ? Al
   Al30       1.0     0.560467     0.865624     0.644510    Uiso  ? Al
   Hf1        1.0     0.558535     0.199551     0.093653    Uiso  ? Hf
   Hf2        1.0     0.777425     0.763035     0.900935    Uiso  ? Hf
   Hf3        1.0     0.220501     0.871629     0.630533    Uiso  ? Hf
   Mg1        1.0     0.115638     0.428794     0.897615    Uiso  ? Mg
   Mg2        1.0     0.225887     0.865642     0.146974    Uiso  ? Mg
   Mg3        1.0     0.886171     0.871296     0.638286    Uiso  ? Mg
   N1         1.0     0.223987     0.200980     0.396768    Uiso  ? N
   N2         1.0     0.101930     0.110351     0.150625    Uiso  ? N
   N3         1.0     0.887194     0.207665     0.896718    Uiso  ? N
   N4         1.0     0.765441     0.118828     0.641352    Uiso  ? N
   N5         1.0     0.557976     0.200145     0.383126    Uiso  ? N
   N6         1.0     0.433829     0.087772     0.151194    Uiso  ? N
   N7         1.0     0.234085     0.183458     0.899694    Uiso  ? N
   N8         1.0     0.095046     0.123016     0.648045    Uiso  ? N
   N9         1.0     0.889204     0.204849     0.396222    Uiso  ? N
   N10        1.0     0.795600     0.089905     0.150121    Uiso  ? N
   N11        1.0     0.555822     0.201426     0.888573    Uiso  ? N
   N12        1.0     0.440637     0.101186     0.637469    Uiso  ? N
   N13        1.0     0.224224     0.537141     0.337172    Uiso  ? N
   N14        1.0     0.113665     0.426116     0.103674    Uiso  ? N
   N15        1.0     0.887466     0.534477     0.832062    Uiso  ? N
   N16        1.0     0.776074     0.427874     0.631495    Uiso  ? N
   N17        1.0     0.548386     0.541508     0.339526    Uiso  ? N
   N18        1.0     0.434609     0.448724     0.087692    Uiso  ? N
   N19        1.0     0.228352     0.548533     0.833596    Uiso  ? N
   N20        1.0     0.108986     0.435004     0.589460    Uiso  ? N
   N21        1.0     0.892139     0.538474     0.346679    Uiso  ? N
   N22        1.0     0.780120     0.423254     0.143142    Uiso  ? N
   N23        1.0     0.551005     0.541345     0.836817    Uiso  ? N
   N24        1.0     0.440112     0.432411     0.585830    Uiso  ? N
   N25        1.0     0.221787     0.874526     0.371845    Uiso  ? N
   N26        1.0     0.105473     0.751817     0.087802    Uiso  ? N
   N27        1.0     0.896143     0.880889     0.846305    Uiso  ? N
   N28        1.0     0.770577     0.754491     0.587824    Uiso  ? N
   N29        1.0     0.559340     0.863385     0.346376    Uiso  ? N
   N30        1.0     0.461584     0.753465     0.084287    Uiso  ? N
   N31        1.0     0.223143     0.870013     0.842035    Uiso  ? N
   N32        1.0     0.116130     0.741834     0.581112    Uiso  ? N
   N33        1.0     0.892743     0.863799     0.347376    Uiso  ? N
   N34        1.0     0.778571     0.760563     0.106147    Uiso  ? N
   N35        1.0     0.544103     0.873110     0.832128    Uiso  ? N
   N36        1.0     0.462523     0.749307     0.586155    Uiso  ? N
