
#======================================================================
# CRYSTAL DATA
#----------------------------------------------------------------------
data_VESTA_phase_1

_chemical_name_common                  'Al   Hf   Mg   N                      '
_cell_length_a                         9.628290
_cell_length_b                         9.644324
_cell_length_c                         10.159439
_cell_angle_alpha                      89.842728
_cell_angle_beta                       89.599777
_cell_angle_gamma                      59.979942
_cell_volume                           816.813238
_space_group_name_H-M_alt              'P 1'
_space_group_IT_number                 1

loop_
_space_group_symop_operation_xyz
   'x, y, z'

loop_
   _atom_site_label
   _atom_site_occupancy
   _atom_site_fract_x
   _atom_site_fract_y
   _atom_site_fract_z
   _atom_site_adp_type
   _atom_site_U_iso_or_equiv
   _atom_site_type_symbol
   Al1        1.0     0.107744     0.095094     0.343025    Uiso  ? Al
   Al2        1.0     0.216797     0.212122     0.150063    Uiso  ? Al
   Al3        1.0     0.775374     0.106973     0.826000    Uiso  ? Al
   Al4        1.0     0.885018     0.210208     0.577266    Uiso  ? Al
   Al5        1.0     0.437694     0.089829     0.396985    Uiso  ? Al
   Al6        1.0     0.115454     0.094543     0.890583    Uiso  ? Al
   Al7        1.0     0.220459     0.210242     0.652013    Uiso  ? Al
   Al8        1.0     0.783940     0.093102     0.337791    Uiso  ? Al
   Al9        1.0     0.890767     0.204329     0.085656    Uiso  ? Al
   Al10       1.0     0.437744     0.092541     0.898040    Uiso  ? Al
   Al11       1.0     0.556260     0.207484     0.580651    Uiso  ? Al
   Al12       1.0     0.112141     0.426441     0.399460    Uiso  ? Al
   Al13       1.0     0.214211     0.543056     0.150376    Uiso  ? Al
   Al14       1.0     0.774834     0.429945     0.898778    Uiso  ? Al
   Al15       1.0     0.888186     0.533897     0.643343    Uiso  ? Al
   Al16       1.0     0.438312     0.438709     0.394528    Uiso  ? Al
   Al17       1.0     0.558178     0.544848     0.148588    Uiso  ? Al
   Al18       1.0     0.223870     0.534423     0.648444    Uiso  ? Al
   Al19       1.0     0.772566     0.435854     0.395993    Uiso  ? Al
   Al20       1.0     0.893320     0.532993     0.154553    Uiso  ? Al
   Al21       1.0     0.439527     0.438558     0.896767    Uiso  ? Al
   Al22       1.0     0.561563     0.532096     0.647420    Uiso  ? Al
   Al23       1.0     0.113182     0.755091     0.397670    Uiso  ? Al
   Al24       1.0     0.446568     0.759083     0.397570    Uiso  ? Al
   Al25       1.0     0.554555     0.865253     0.154058    Uiso  ? Al
   Al26       1.0     0.113318     0.759741     0.903169    Uiso  ? Al
   Al27       1.0     0.776842     0.757418     0.403030    Uiso  ? Al
   Al28       1.0     0.898990     0.858780     0.156437    Uiso  ? Al
   Al29       1.0     0.447175     0.757018     0.901201    Uiso  ? Al
   Al30       1.0     0.556611     0.871775     0.642643    Uiso  ? Al
   Hf1        1.0     0.554210     0.206739     0.114188    Uiso  ? Hf
   Hf2        1.0     0.779782     0.762904     0.893695    Uiso  ? Hf
   Hf3        1.0     0.220140     0.873028     0.640022    Uiso  ? Hf
   Mg1        1.0     0.116552     0.425585     0.897675    Uiso  ? Mg
   Mg2        1.0     0.228387     0.861483     0.143258    Uiso  ? Mg
   Mg3        1.0     0.886353     0.871960     0.633003    Uiso  ? Mg
   N1         1.0     0.223012     0.207390     0.340138    Uiso  ? N
   N2         1.0     0.106505     0.104581     0.119039    Uiso  ? N
   N3         1.0     0.888834     0.202718     0.894114    Uiso  ? N
   N4         1.0     0.764211     0.119497     0.637515    Uiso  ? N
   N5         1.0     0.553920     0.205748     0.363414    Uiso  ? N
   N6         1.0     0.433913     0.080081     0.091333    Uiso  ? N
   N7         1.0     0.230509     0.193858     0.838779    Uiso  ? N
   N8         1.0     0.100296     0.113012     0.612709    Uiso  ? N
   N9         1.0     0.886985     0.205643     0.384335    Uiso  ? N
   N10        1.0     0.796713     0.086344     0.147491    Uiso  ? N
   N11        1.0     0.558874     0.204010     0.895435    Uiso  ? N
   N12        1.0     0.442535     0.092999     0.586571    Uiso  ? N
   N13        1.0     0.222281     0.537107     0.338732    Uiso  ? N
   N14        1.0     0.111856     0.428095     0.101950    Uiso  ? N
   N15        1.0     0.882874     0.530174     0.830892    Uiso  ? N
   N16        1.0     0.773077     0.434424     0.584756    Uiso  ? N
   N17        1.0     0.554641     0.540925     0.337052    Uiso  ? N
   N18        1.0     0.432558     0.453809     0.090524    Uiso  ? N
   N19        1.0     0.230037     0.548019     0.833754    Uiso  ? N
   N20        1.0     0.112604     0.426666     0.589952    Uiso  ? N
   N21        1.0     0.889420     0.537766     0.342789    Uiso  ? N
   N22        1.0     0.775715     0.433192     0.092596    Uiso  ? N
   N23        1.0     0.557899     0.536863     0.836948    Uiso  ? N
   N24        1.0     0.442652     0.432401     0.584377    Uiso  ? N
   N25        1.0     0.223515     0.869899     0.358583    Uiso  ? N
   N26        1.0     0.103488     0.751670     0.088577    Uiso  ? N
   N27        1.0     0.898866     0.880972     0.843125    Uiso  ? N
   N28        1.0     0.770560     0.752372     0.590010    Uiso  ? N
   N29        1.0     0.555222     0.870747     0.341624    Uiso  ? N
   N30        1.0     0.464035     0.751983     0.084939    Uiso  ? N
   N31        1.0     0.225486     0.870361     0.853047    Uiso  ? N
   N32        1.0     0.118146     0.742597     0.581005    Uiso  ? N
   N33        1.0     0.891178     0.864264     0.348559    Uiso  ? N
   N34        1.0     0.777816     0.760924     0.102031    Uiso  ? N
   N35        1.0     0.541584     0.879203     0.832309    Uiso  ? N
   N36        1.0     0.461344     0.750555     0.586312    Uiso  ? N
