
#======================================================================
# CRYSTAL DATA
#----------------------------------------------------------------------
data_VESTA_phase_1

_chemical_name_common                  'Al   Hf   Mg   N                      '
_cell_length_a                         9.626245
_cell_length_b                         9.651632
_cell_length_c                         10.242797
_cell_angle_alpha                      90.351334
_cell_angle_beta                       90.124672
_cell_angle_gamma                      60.026203
_cell_volume                           824.352791
_space_group_name_H-M_alt              'P 1'
_space_group_IT_number                 1

loop_
_space_group_symop_operation_xyz
   'x, y, z'

loop_
   _atom_site_label
   _atom_site_occupancy
   _atom_site_fract_x
   _atom_site_fract_y
   _atom_site_fract_z
   _atom_site_adp_type
   _atom_site_U_iso_or_equiv
   _atom_site_type_symbol
   Al1        1.0     0.108048     0.100100     0.329227    Uiso  ? Al
   Al2        1.0     0.215687     0.202432     0.079092    Uiso  ? Al
   Al3        1.0     0.777119     0.106060     0.818670    Uiso  ? Al
   Al4        1.0     0.882501     0.217306     0.577278    Uiso  ? Al
   Al5        1.0     0.438889     0.094938     0.334536    Uiso  ? Al
   Al6        1.0     0.107126     0.102925     0.833570    Uiso  ? Al
   Al7        1.0     0.217058     0.216134     0.575084    Uiso  ? Al
   Al8        1.0     0.782679     0.096365     0.334284    Uiso  ? Al
   Al9        1.0     0.894949     0.205732     0.078829    Uiso  ? Al
   Al10       1.0     0.431205     0.105411     0.821073    Uiso  ? Al
   Al11       1.0     0.555971     0.205435     0.573191    Uiso  ? Al
   Al12       1.0     0.111247     0.422648     0.328737    Uiso  ? Al
   Al13       1.0     0.218691     0.542449     0.142419    Uiso  ? Al
   Al14       1.0     0.782411     0.422538     0.828281    Uiso  ? Al
   Al15       1.0     0.892338     0.535429     0.575757    Uiso  ? Al
   Al16       1.0     0.439636     0.436177     0.393689    Uiso  ? Al
   Al17       1.0     0.553213     0.543380     0.144288    Uiso  ? Al
   Al18       1.0     0.224694     0.536071     0.645110    Uiso  ? Al
   Al19       1.0     0.782494     0.422964     0.327689    Uiso  ? Al
   Al20       1.0     0.891086     0.528862     0.082768    Uiso  ? Al
   Al21       1.0     0.436604     0.443737     0.889246    Uiso  ? Al
   Al22       1.0     0.557905     0.533751     0.644125    Uiso  ? Al
   Al23       1.0     0.115878     0.753184     0.392439    Uiso  ? Al
   Al24       1.0     0.450315     0.755558     0.394281    Uiso  ? Al
   Al25       1.0     0.552929     0.861839     0.148734    Uiso  ? Al
   Al26       1.0     0.112749     0.764143     0.897530    Uiso  ? Al
   Al27       1.0     0.783317     0.751567     0.332057    Uiso  ? Al
   Al28       1.0     0.901677     0.862886     0.145415    Uiso  ? Al
   Al29       1.0     0.441727     0.761541     0.897213    Uiso  ? Al
   Al30       1.0     0.554787     0.869576     0.637347    Uiso  ? Al
   Hf1        1.0     0.558294     0.198422     0.085560    Uiso  ? Hf
   Hf2        1.0     0.779939     0.760373     0.846202    Uiso  ? Hf
   Hf3        1.0     0.223199     0.870003     0.626199    Uiso  ? Hf
   Mg1        1.0     0.112545     0.421250     0.834122    Uiso  ? Mg
   Mg2        1.0     0.225732     0.866094     0.142091    Uiso  ? Mg
   Mg3        1.0     0.884949     0.876297     0.614222    Uiso  ? Mg
   N1         1.0     0.221672     0.205393     0.388861    Uiso  ? N
   N2         1.0     0.101813     0.109386     0.144208    Uiso  ? N
   N3         1.0     0.886745     0.207861     0.890324    Uiso  ? N
   N4         1.0     0.765599     0.120159     0.633113    Uiso  ? N
   N5         1.0     0.557560     0.201252     0.376672    Uiso  ? N
   N6         1.0     0.431994     0.088966     0.144135    Uiso  ? N
   N7         1.0     0.229006     0.191068     0.895259    Uiso  ? N
   N8         1.0     0.098243     0.119592     0.640263    Uiso  ? N
   N9         1.0     0.888549     0.207863     0.390941    Uiso  ? N
   N10        1.0     0.794781     0.090645     0.143789    Uiso  ? N
   N11        1.0     0.554215     0.204164     0.879621    Uiso  ? N
   N12        1.0     0.440347     0.101358     0.629148    Uiso  ? N
   N13        1.0     0.226769     0.538144     0.330671    Uiso  ? N
   N14        1.0     0.110466     0.421399     0.137624    Uiso  ? N
   N15        1.0     0.883294     0.525382     0.900420    Uiso  ? N
   N16        1.0     0.784030     0.428109     0.637405    Uiso  ? N
   N17        1.0     0.550723     0.540092     0.334084    Uiso  ? N
   N18        1.0     0.435374     0.446232     0.081857    Uiso  ? N
   N19        1.0     0.227870     0.552509     0.830898    Uiso  ? N
   N20        1.0     0.109708     0.428586     0.624750    Uiso  ? N
   N21        1.0     0.889606     0.535500     0.385325    Uiso  ? N
   N22        1.0     0.781415     0.421581     0.140038    Uiso  ? N
   N23        1.0     0.551890     0.542175     0.833158    Uiso  ? N
   N24        1.0     0.442302     0.433296     0.581421    Uiso  ? N
   N25        1.0     0.223136     0.874259     0.365760    Uiso  ? N
   N26        1.0     0.107445     0.751096     0.082659    Uiso  ? N
   N27        1.0     0.897566     0.887290     0.847496    Uiso  ? N
   N28        1.0     0.776033     0.747304     0.636940    Uiso  ? N
   N29        1.0     0.556870     0.865869     0.342328    Uiso  ? N
   N30        1.0     0.459914     0.751158     0.080799    Uiso  ? N
   N31        1.0     0.223208     0.871460     0.838135    Uiso  ? N
   N32        1.0     0.118088     0.741145     0.574638    Uiso  ? N
   N33        1.0     0.894817     0.866860     0.343947    Uiso  ? N
   N34        1.0     0.780474     0.756038     0.128800    Uiso  ? N
   N35        1.0     0.532767     0.881507     0.832534    Uiso  ? N
   N36        1.0     0.465901     0.746666     0.579835    Uiso  ? N
