
#======================================================================
# CRYSTAL DATA
#----------------------------------------------------------------------
data_VESTA_phase_1

_chemical_name_common                  'Al   Hf   Mg   N '
_cell_length_a                         9.681795
_cell_length_b                         9.718996
_cell_length_c                         9.981134
_cell_angle_alpha                      90.179176
_cell_angle_beta                       90.127373
_cell_angle_gamma                      60.021290
_cell_volume                           813.539622
_space_group_name_H-M_alt              'P 1'
_space_group_IT_number                 1

loop_
_space_group_symop_operation_xyz
   'x, y, z'

loop_
   _atom_site_label
   _atom_site_occupancy
   _atom_site_fract_x
   _atom_site_fract_y
   _atom_site_fract_z
   _atom_site_adp_type
   _atom_site_U_iso_or_equiv
   _atom_site_type_symbol
   Al1        1.0     0.107032     0.102428     0.323330    Uiso  ? Al
   Al2        1.0     0.215531     0.204096     0.072411    Uiso  ? Al
   Al3        1.0     0.777700     0.101539     0.818412    Uiso  ? Al
   Al4        1.0     0.882807     0.214985     0.573257    Uiso  ? Al
   Al5        1.0     0.439603     0.090795     0.327868    Uiso  ? Al
   Al6        1.0     0.108064     0.101612     0.828379    Uiso  ? Al
   Al7        1.0     0.217781     0.214841     0.572410    Uiso  ? Al
   Al8        1.0     0.787084     0.090717     0.326983    Uiso  ? Al
   Al9        1.0     0.893277     0.208392     0.072605    Uiso  ? Al
   Al10       1.0     0.437793     0.096392     0.819180    Uiso  ? Al
   Al11       1.0     0.557559     0.202937     0.570954    Uiso  ? Al
   Al12       1.0     0.111035     0.423842     0.326740    Uiso  ? Al
   Al13       1.0     0.218523     0.542496     0.136192    Uiso  ? Al
   Al14       1.0     0.781864     0.422098     0.822214    Uiso  ? Al
   Al15       1.0     0.891469     0.536078     0.567842    Uiso  ? Al
   Al16       1.0     0.440167     0.434265     0.387674    Uiso  ? Al
   Al17       1.0     0.553687     0.542264     0.139179    Uiso  ? Al
   Al18       1.0     0.224279     0.536002     0.637355    Uiso  ? Al
   Al19       1.0     0.782479     0.423339     0.324711    Uiso  ? Al
   Al20       1.0     0.890194     0.529967     0.078346    Uiso  ? Al
   Al21       1.0     0.438994     0.439155     0.881612    Uiso  ? Al
   Al22       1.0     0.557499     0.534783     0.634879    Uiso  ? Al
   Al23       1.0     0.113593     0.753912     0.380377    Uiso  ? Al
   Al24       1.0     0.449323     0.754911     0.379790    Uiso  ? Al
   Al25       1.0     0.552080     0.871394     0.079339    Uiso  ? Al
   Al26       1.0     0.119136     0.759923     0.892522    Uiso  ? Al
   Al27       1.0     0.780093     0.759551     0.315796    Uiso  ? Al
   Al28       1.0     0.893605     0.871752     0.088388    Uiso  ? Al
   Al29       1.0     0.439802     0.756250     0.893316    Uiso  ? Al
   Al30       1.0     0.563993     0.870791     0.566807    Uiso  ? Al
   Hf1        1.0     0.555098     0.203614     0.091101    Uiso  ? Hf
   Hf2        1.0     0.778120     0.760235     0.834820    Uiso  ? Hf
   Hf3        1.0     0.223788     0.871277     0.612787    Uiso  ? Hf
   Mg1        1.0     0.113235     0.421402     0.831177    Uiso  ? Mg
   Mg2        1.0     0.222717     0.870800     0.134387    Uiso  ? Mg
   Mg3        1.0     0.880148     0.876034     0.572339    Uiso  ? Mg
   N1         1.0     0.222362     0.204863     0.381701    Uiso  ? N
   N2         1.0     0.100773     0.111711     0.134118    Uiso  ? N
   N3         1.0     0.887082     0.207253     0.880724    Uiso  ? N
   N4         1.0     0.769625     0.111807     0.628493    Uiso  ? N
   N5         1.0     0.557014     0.202235     0.363544    Uiso  ? N
   N6         1.0     0.432490     0.085286     0.136992    Uiso  ? N
   N7         1.0     0.230283     0.190323     0.884260    Uiso  ? N
   N8         1.0     0.098022     0.119443     0.632620    Uiso  ? N
   N9         1.0     0.888633     0.206920     0.382908    Uiso  ? N
   N10        1.0     0.795562     0.090812     0.134151    Uiso  ? N
   N11        1.0     0.554383     0.203510     0.876515    Uiso  ? N
   N12        1.0     0.445539     0.092512     0.624298    Uiso  ? N
   N13        1.0     0.226939     0.536821     0.328376    Uiso  ? N
   N14        1.0     0.110977     0.422394     0.128705    Uiso  ? N
   N15        1.0     0.881701     0.527314     0.890685    Uiso  ? N
   N16        1.0     0.782678     0.428042     0.626743    Uiso  ? N
   N17        1.0     0.552673     0.537595     0.332797    Uiso  ? N
   N18        1.0     0.434806     0.447476     0.078714    Uiso  ? N
   N19        1.0     0.228249     0.550716     0.827784    Uiso  ? N
   N20        1.0     0.109495     0.429303     0.614811    Uiso  ? N
   N21        1.0     0.887005     0.540094     0.373676    Uiso  ? N
   N22        1.0     0.779980     0.422790     0.131903    Uiso  ? N
   N23        1.0     0.552911     0.540816     0.829252    Uiso  ? N
   N24        1.0     0.444451     0.428249     0.579853    Uiso  ? N
   N25        1.0     0.221757     0.876596     0.360860    Uiso  ? N
   N26        1.0     0.111492     0.750304     0.083280    Uiso  ? N
   N27        1.0     0.891191     0.888939     0.881312    Uiso  ? N
   N28        1.0     0.772602     0.751418     0.627963    Uiso  ? N
   N29        1.0     0.561236     0.872046     0.372338    Uiso  ? N
   N30        1.0     0.455930     0.749544     0.084886    Uiso  ? N
   N31        1.0     0.223491     0.871438     0.833629    Uiso  ? N
   N32        1.0     0.118854     0.741260     0.571743    Uiso  ? N
   N33        1.0     0.889005     0.870245     0.355813    Uiso  ? N
   N34        1.0     0.776706     0.760678     0.119315    Uiso  ? N
   N35        1.0     0.539284     0.884425     0.882397    Uiso  ? N
   N36        1.0     0.465508     0.745934     0.575651    Uiso  ? N
