
#======================================================================
# CRYSTAL DATA
#----------------------------------------------------------------------
data_VESTA_phase_1

_chemical_name_common                  'Al   Hf   Mg   N                      '
_cell_length_a                         9.637040
_cell_length_b                         9.659775
_cell_length_c                         10.152116
_cell_angle_alpha                      89.757492
_cell_angle_beta                       89.653801
_cell_angle_gamma                      60.005817
_cell_volume                           818.492994
_space_group_name_H-M_alt              'P 1'
_space_group_IT_number                 1

loop_
_space_group_symop_operation_xyz
   'x, y, z'

loop_
   _atom_site_label
   _atom_site_occupancy
   _atom_site_fract_x
   _atom_site_fract_y
   _atom_site_fract_z
   _atom_site_adp_type
   _atom_site_U_iso_or_equiv
   _atom_site_type_symbol
   Al1        1.0     0.108142     0.102541     0.332659    Uiso  ? Al
   Al2        1.0     0.212660     0.206914     0.104637    Uiso  ? Al
   Al3        1.0     0.773268     0.106505     0.828459    Uiso  ? Al
   Al4        1.0     0.883272     0.211637     0.580721    Uiso  ? Al
   Al5        1.0     0.438114     0.089395     0.398997    Uiso  ? Al
   Al6        1.0     0.103739     0.100158     0.835866    Uiso  ? Al
   Al7        1.0     0.222240     0.213698     0.637133    Uiso  ? Al
   Al8        1.0     0.787118     0.092625     0.338846    Uiso  ? Al
   Al9        1.0     0.895929     0.199674     0.082899    Uiso  ? Al
   Al10       1.0     0.441375     0.090361     0.895165    Uiso  ? Al
   Al11       1.0     0.558188     0.207339     0.581568    Uiso  ? Al
   Al12       1.0     0.112744     0.426246     0.400705    Uiso  ? Al
   Al13       1.0     0.214234     0.542263     0.149216    Uiso  ? Al
   Al14       1.0     0.773736     0.430026     0.899864    Uiso  ? Al
   Al15       1.0     0.886418     0.536258     0.644282    Uiso  ? Al
   Al16       1.0     0.438811     0.438212     0.394302    Uiso  ? Al
   Al17       1.0     0.558731     0.543742     0.147785    Uiso  ? Al
   Al18       1.0     0.225160     0.535238     0.650145    Uiso  ? Al
   Al19       1.0     0.774422     0.433904     0.397272    Uiso  ? Al
   Al20       1.0     0.894360     0.530249     0.155326    Uiso  ? Al
   Al21       1.0     0.439821     0.438131     0.898244    Uiso  ? Al
   Al22       1.0     0.562520     0.531075     0.649022    Uiso  ? Al
   Al23       1.0     0.112621     0.754130     0.397288    Uiso  ? Al
   Al24       1.0     0.450620     0.757059     0.397325    Uiso  ? Al
   Al25       1.0     0.554482     0.863849     0.154556    Uiso  ? Al
   Al26       1.0     0.114317     0.762327     0.900831    Uiso  ? Al
   Al27       1.0     0.778103     0.756922     0.402503    Uiso  ? Al
   Al28       1.0     0.899327     0.858960     0.155870    Uiso  ? Al
   Al29       1.0     0.442580     0.759394     0.899016    Uiso  ? Al
   Al30       1.0     0.559392     0.869488     0.644100    Uiso  ? Al
   Hf1        1.0     0.553321     0.205868     0.117655    Uiso  ? Hf
   Hf2        1.0     0.779078     0.762216     0.896185    Uiso  ? Hf
   Hf3        1.0     0.222624     0.870692     0.624168    Uiso  ? Hf
   Mg1        1.0     0.113404     0.432097     0.891548    Uiso  ? Mg
   Mg2        1.0     0.226958     0.863583     0.144872    Uiso  ? Mg
   Mg3        1.0     0.886355     0.871822     0.635556    Uiso  ? Mg
   N1         1.0     0.221323     0.206598     0.369878    Uiso  ? N
   N2         1.0     0.101233     0.106406     0.144041    Uiso  ? N
   N3         1.0     0.888934     0.201879     0.893792    Uiso  ? N
   N4         1.0     0.764817     0.119057     0.640159    Uiso  ? N
   N5         1.0     0.556016     0.204609     0.364909    Uiso  ? N
   N6         1.0     0.436526     0.076669     0.090405    Uiso  ? N
   N7         1.0     0.228014     0.195883     0.855010    Uiso  ? N
   N8         1.0     0.092486     0.118906     0.643512    Uiso  ? N
   N9         1.0     0.890491     0.202912     0.391531    Uiso  ? N
   N10        1.0     0.796615     0.086827     0.147723    Uiso  ? N
   N11        1.0     0.558298     0.204372     0.896637    Uiso  ? N
   N12        1.0     0.447323     0.090841     0.591928    Uiso  ? N
   N13        1.0     0.222485     0.537323     0.338016    Uiso  ? N
   N14        1.0     0.111156     0.428248     0.098783    Uiso  ? N
   N15        1.0     0.879999     0.531448     0.831249    Uiso  ? N
   N16        1.0     0.773281     0.434953     0.586265    Uiso  ? N
   N17        1.0     0.556049     0.539821     0.336726    Uiso  ? N
   N18        1.0     0.433058     0.452168     0.091617    Uiso  ? N
   N19        1.0     0.231121     0.549393     0.834619    Uiso  ? N
   N20        1.0     0.110017     0.432647     0.593895    Uiso  ? N
   N21        1.0     0.890036     0.537069     0.343409    Uiso  ? N
   N22        1.0     0.776810     0.430749     0.092531    Uiso  ? N
   N23        1.0     0.557325     0.536880     0.838203    Uiso  ? N
   N24        1.0     0.443119     0.432233     0.584587    Uiso  ? N
   N25        1.0     0.223014     0.873648     0.371664    Uiso  ? N
   N26        1.0     0.104615     0.752335     0.088206    Uiso  ? N
   N27        1.0     0.897331     0.880763     0.845387    Uiso  ? N
   N28        1.0     0.771445     0.752891     0.589435    Uiso  ? N
   N29        1.0     0.556287     0.870522     0.342100    Uiso  ? N
   N30        1.0     0.461652     0.752301     0.084717    Uiso  ? N
   N31        1.0     0.225149     0.869411     0.841400    Uiso  ? N
   N32        1.0     0.116900     0.741243     0.581201    Uiso  ? N
   N33        1.0     0.892165     0.863873     0.347995    Uiso  ? N
   N34        1.0     0.778231     0.759439     0.104031    Uiso  ? N
   N35        1.0     0.542252     0.877636     0.832613    Uiso  ? N
   N36        1.0     0.466028     0.747456     0.586299    Uiso  ? N
