
#======================================================================
# CRYSTAL DATA
#----------------------------------------------------------------------
data_VESTA_phase_1

_chemical_name_common                  'Al   Hf   Mg   N                      '
_cell_length_a                         9.609221
_cell_length_b                         9.601071
_cell_length_c                         10.342968
_cell_angle_alpha                      90.183174
_cell_angle_beta                       90.038658
_cell_angle_gamma                      59.930668
_cell_volume                           825.804723
_space_group_name_H-M_alt              'P 1'
_space_group_IT_number                 1

loop_
_space_group_symop_operation_xyz
   'x, y, z'

loop_
   _atom_site_label
   _atom_site_occupancy
   _atom_site_fract_x
   _atom_site_fract_y
   _atom_site_fract_z
   _atom_site_adp_type
   _atom_site_U_iso_or_equiv
   _atom_site_type_symbol
   Al1        1.0     0.107658     0.100436     0.331672    Uiso  ? Al
   Al2        1.0     0.216748     0.201588     0.081227    Uiso  ? Al
   Al3        1.0     0.777466     0.106685     0.820602    Uiso  ? Al
   Al4        1.0     0.882003     0.217525     0.579248    Uiso  ? Al
   Al5        1.0     0.438317     0.095165     0.336298    Uiso  ? Al
   Al6        1.0     0.107612     0.102873     0.835049    Uiso  ? Al
   Al7        1.0     0.217490     0.216455     0.576781    Uiso  ? Al
   Al8        1.0     0.782914     0.095447     0.337108    Uiso  ? Al
   Al9        1.0     0.895456     0.204746     0.081668    Uiso  ? Al
   Al10       1.0     0.431708     0.104292     0.821253    Uiso  ? Al
   Al11       1.0     0.557324     0.203427     0.575179    Uiso  ? Al
   Al12       1.0     0.109208     0.423909     0.329344    Uiso  ? Al
   Al13       1.0     0.218856     0.543268     0.145120    Uiso  ? Al
   Al14       1.0     0.782329     0.423350     0.829600    Uiso  ? Al
   Al15       1.0     0.894268     0.531493     0.577143    Uiso  ? Al
   Al16       1.0     0.439698     0.435616     0.396220    Uiso  ? Al
   Al17       1.0     0.552574     0.544221     0.146618    Uiso  ? Al
   Al18       1.0     0.226102     0.535369     0.647598    Uiso  ? Al
   Al19       1.0     0.782854     0.424090     0.328850    Uiso  ? Al
   Al20       1.0     0.892365     0.526578     0.085096    Uiso  ? Al
   Al21       1.0     0.437731     0.441783     0.892433    Uiso  ? Al
   Al22       1.0     0.557110     0.533563     0.646843    Uiso  ? Al
   Al23       1.0     0.113817     0.753338     0.396137    Uiso  ? Al
   Al24       1.0     0.449713     0.755302     0.397081    Uiso  ? Al
   Al25       1.0     0.557422     0.859349     0.156352    Uiso  ? Al
   Al26       1.0     0.113994     0.762325     0.899130    Uiso  ? Al
   Al27       1.0     0.775360     0.763042     0.402148    Uiso  ? Al
   Al28       1.0     0.900189     0.859737     0.155676    Uiso  ? Al
   Al29       1.0     0.442410     0.760179     0.898200    Uiso  ? Al
   Al30       1.0     0.558686     0.867247     0.640607    Uiso  ? Al
   Hf1        1.0     0.559614     0.196640     0.088316    Uiso  ? Hf
   Hf2        1.0     0.772637     0.772330     0.893102    Uiso  ? Hf
   Hf3        1.0     0.222993     0.870059     0.628209    Uiso  ? Hf
   Mg1        1.0     0.111738     0.422250     0.834575    Uiso  ? Mg
   Mg2        1.0     0.225936     0.865639     0.144302    Uiso  ? Mg
   Mg3        1.0     0.888591     0.871778     0.635283    Uiso  ? Mg
   N1         1.0     0.221589     0.205636     0.391946    Uiso  ? N
   N2         1.0     0.101807     0.110162     0.147924    Uiso  ? N
   N3         1.0     0.887554     0.207040     0.894056    Uiso  ? N
   N4         1.0     0.765780     0.120862     0.637573    Uiso  ? N
   N5         1.0     0.558366     0.199265     0.381102    Uiso  ? N
   N6         1.0     0.431538     0.089670     0.148478    Uiso  ? N
   N7         1.0     0.230686     0.189373     0.898487    Uiso  ? N
   N8         1.0     0.097665     0.120901     0.643280    Uiso  ? N
   N9         1.0     0.887882     0.207791     0.394223    Uiso  ? N
   N10        1.0     0.795302     0.090625     0.148401    Uiso  ? N
   N11        1.0     0.557003     0.198976     0.884149    Uiso  ? N
   N12        1.0     0.439325     0.102362     0.632815    Uiso  ? N
   N13        1.0     0.226981     0.538002     0.331765    Uiso  ? N
   N14        1.0     0.109825     0.422567     0.139411    Uiso  ? N
   N15        1.0     0.882576     0.527495     0.900363    Uiso  ? N
   N16        1.0     0.783823     0.429261     0.641675    Uiso  ? N
   N17        1.0     0.550200     0.539890     0.334627    Uiso  ? N
   N18        1.0     0.435547     0.446214     0.083134    Uiso  ? N
   N19        1.0     0.230294     0.550521     0.832094    Uiso  ? N
   N20        1.0     0.109355     0.429205     0.628983    Uiso  ? N
   N21        1.0     0.891500     0.531802     0.386882    Uiso  ? N
   N22        1.0     0.781260     0.422551     0.142131    Uiso  ? N
   N23        1.0     0.552025     0.540394     0.834646    Uiso  ? N
   N24        1.0     0.442691     0.433032     0.582381    Uiso  ? N
   N25        1.0     0.222419     0.873730     0.367718    Uiso  ? N
   N26        1.0     0.104230     0.752592     0.083276    Uiso  ? N
   N27        1.0     0.899520     0.882048     0.840575    Uiso  ? N
   N28        1.0     0.769279     0.758813     0.588021    Uiso  ? N
   N29        1.0     0.558935     0.863549     0.342068    Uiso  ? N
   N30        1.0     0.461583     0.752597     0.081060    Uiso  ? N
   N31        1.0     0.223955     0.870561     0.839106    Uiso  ? N
   N32        1.0     0.117379     0.741299     0.576506    Uiso  ? N
   N33        1.0     0.893158     0.863469     0.343352    Uiso  ? N
   N34        1.0     0.773633     0.769256     0.098498    Uiso  ? N
   N35        1.0     0.538991     0.875054     0.827216    Uiso  ? N
   N36        1.0     0.465194     0.746898     0.581507    Uiso  ? N
