
#======================================================================
# CRYSTAL DATA
#----------------------------------------------------------------------
data_VESTA_phase_1

_chemical_name_common                  'Al   Hf   Mg   N                      '
_cell_length_a                         9.627322
_cell_length_b                         9.667237
_cell_length_c                         10.155000
_cell_angle_alpha                      90.223740
_cell_angle_beta                       90.009987
_cell_angle_gamma                      60.105591
_cell_volume                           819.361064
_space_group_name_H-M_alt              'P 1'
_space_group_IT_number                 1

loop_
_space_group_symop_operation_xyz
   'x, y, z'

loop_
   _atom_site_label
   _atom_site_occupancy
   _atom_site_fract_x
   _atom_site_fract_y
   _atom_site_fract_z
   _atom_site_adp_type
   _atom_site_U_iso_or_equiv
   _atom_site_type_symbol
   Al1        1.0     0.106508     0.103365     0.326957    Uiso  ? Al
   Al2        1.0     0.215246     0.203841     0.075582    Uiso  ? Al
   Al3        1.0     0.777227     0.102033     0.820956    Uiso  ? Al
   Al4        1.0     0.882538     0.215489     0.575616    Uiso  ? Al
   Al5        1.0     0.441039     0.091632     0.329510    Uiso  ? Al
   Al6        1.0     0.107759     0.101637     0.827041    Uiso  ? Al
   Al7        1.0     0.219065     0.215303     0.573641    Uiso  ? Al
   Al8        1.0     0.787560     0.089625     0.327289    Uiso  ? Al
   Al9        1.0     0.894306     0.207955     0.075158    Uiso  ? Al
   Al10       1.0     0.436918     0.096158     0.821772    Uiso  ? Al
   Al11       1.0     0.558707     0.201806     0.572960    Uiso  ? Al
   Al12       1.0     0.111099     0.423565     0.326571    Uiso  ? Al
   Al13       1.0     0.218030     0.543960     0.140388    Uiso  ? Al
   Al14       1.0     0.784340     0.420382     0.825230    Uiso  ? Al
   Al15       1.0     0.892491     0.535437     0.569185    Uiso  ? Al
   Al16       1.0     0.441183     0.434688     0.392495    Uiso  ? Al
   Al17       1.0     0.555307     0.539287     0.142326    Uiso  ? Al
   Al18       1.0     0.225943     0.535189     0.641036    Uiso  ? Al
   Al19       1.0     0.783492     0.423074     0.325897    Uiso  ? Al
   Al20       1.0     0.890069     0.532038     0.079947    Uiso  ? Al
   Al21       1.0     0.437890     0.439264     0.887269    Uiso  ? Al
   Al22       1.0     0.558307     0.533790     0.640327    Uiso  ? Al
   Al23       1.0     0.113198     0.752585     0.387112    Uiso  ? Al
   Al24       1.0     0.447177     0.760941     0.346690    Uiso  ? Al
   Al25       1.0     0.552769     0.870652     0.080788    Uiso  ? Al
   Al26       1.0     0.119117     0.758482     0.892310    Uiso  ? Al
   Al27       1.0     0.781095     0.760262     0.318754    Uiso  ? Al
   Al28       1.0     0.891498     0.871135     0.081748    Uiso  ? Al
   Al29       1.0     0.438154     0.758781     0.877687    Uiso  ? Al
   Al30       1.0     0.562186     0.868759     0.567309    Uiso  ? Al
   Hf1        1.0     0.555810     0.202476     0.090504    Uiso  ? Hf
   Hf2        1.0     0.777522     0.758782     0.830729    Uiso  ? Hf
   Hf3        1.0     0.225165     0.871873     0.608189    Uiso  ? Hf
   Mg1        1.0     0.113653     0.419367     0.830951    Uiso  ? Mg
   Mg2        1.0     0.215237     0.874098     0.131511    Uiso  ? Mg
   Mg3        1.0     0.878708     0.878333     0.572621    Uiso  ? Mg
   N1         1.0     0.223395     0.205547     0.385524    Uiso  ? N
   N2         1.0     0.099763     0.113276     0.141318    Uiso  ? N
   N3         1.0     0.888194     0.206135     0.885978    Uiso  ? N
   N4         1.0     0.769613     0.112701     0.635126    Uiso  ? N
   N5         1.0     0.558591     0.201162     0.369773    Uiso  ? N
   N6         1.0     0.433045     0.085449     0.141308    Uiso  ? N
   N7         1.0     0.229876     0.188973     0.890124    Uiso  ? N
   N8         1.0     0.098088     0.121381     0.635700    Uiso  ? N
   N9         1.0     0.887644     0.207359     0.387457    Uiso  ? N
   N10        1.0     0.796583     0.088720     0.137219    Uiso  ? N
   N11        1.0     0.554133     0.202492     0.881198    Uiso  ? N
   N12        1.0     0.446022     0.092016     0.629767    Uiso  ? N
   N13        1.0     0.227849     0.537611     0.329137    Uiso  ? N
   N14        1.0     0.110631     0.422571     0.132959    Uiso  ? N
   N15        1.0     0.881899     0.528588     0.895176    Uiso  ? N
   N16        1.0     0.784415     0.427429     0.633411    Uiso  ? N
   N17        1.0     0.553938     0.536377     0.334714    Uiso  ? N
   N18        1.0     0.434229     0.447669     0.080267    Uiso  ? N
   N19        1.0     0.229552     0.549312     0.827909    Uiso  ? N
   N20        1.0     0.109745     0.428849     0.619979    Uiso  ? N
   N21        1.0     0.887986     0.539642     0.377988    Uiso  ? N
   N22        1.0     0.781675     0.422333     0.135509    Uiso  ? N
   N23        1.0     0.554809     0.537949     0.835022    Uiso  ? N
   N24        1.0     0.445441     0.428184     0.581180    Uiso  ? N
   N25        1.0     0.220517     0.877711     0.366879    Uiso  ? N
   N26        1.0     0.110397     0.748807     0.079512    Uiso  ? N
   N27        1.0     0.888023     0.888557     0.884439    Uiso  ? N
   N28        1.0     0.772901     0.751818     0.628710    Uiso  ? N
   N29        1.0     0.560606     0.872485     0.377458    Uiso  ? N
   N30        1.0     0.454189     0.754227     0.111083    Uiso  ? N
   N31        1.0     0.219918     0.872742     0.833460    Uiso  ? N
   N32        1.0     0.119178     0.739394     0.574216    Uiso  ? N
   N33        1.0     0.888665     0.871096     0.363586    Uiso  ? N
   N34        1.0     0.776685     0.761287     0.125668    Uiso  ? N
   N35        1.0     0.539612     0.882584     0.889326    Uiso  ? N
   N36        1.0     0.466551     0.747677     0.598927    Uiso  ? N
