
#======================================================================
# CRYSTAL DATA
#----------------------------------------------------------------------
data_VESTA_phase_1

_chemical_name_common                  'Al   Hf   Mg   N '
_cell_length_a                         9.609689
_cell_length_b                         9.602163
_cell_length_c                         10.340826
_cell_angle_alpha                      90.183113
_cell_angle_beta                       90.038605
_cell_angle_gamma                      59.935360
_cell_volume                           825.806996
_space_group_name_H-M_alt              'P 1'
_space_group_IT_number                 1

loop_
_space_group_symop_operation_xyz
   'x, y, z'

loop_
   _atom_site_label
   _atom_site_occupancy
   _atom_site_fract_x
   _atom_site_fract_y
   _atom_site_fract_z
   _atom_site_adp_type
   _atom_site_U_iso_or_equiv
   _atom_site_type_symbol
   Al1        1.0     0.107647     0.100487     0.336080    Uiso  ? Al
   Al2        1.0     0.216800     0.201498     0.085562    Uiso  ? Al
   Al3        1.0     0.777399     0.106676     0.824977    Uiso  ? Al
   Al4        1.0     0.881931     0.217540     0.583584    Uiso  ? Al
   Al5        1.0     0.438345     0.095149     0.340614    Uiso  ? Al
   Al6        1.0     0.107600     0.102801     0.839305    Uiso  ? Al
   Al7        1.0     0.217485     0.216463     0.581131    Uiso  ? Al
   Al8        1.0     0.782915     0.095445     0.341418    Uiso  ? Al
   Al9        1.0     0.895497     0.204691     0.086004    Uiso  ? Al
   Al10       1.0     0.431727     0.104251     0.825632    Uiso  ? Al
   Al11       1.0     0.557244     0.203484     0.579496    Uiso  ? Al
   Al12       1.0     0.109236     0.423918     0.333662    Uiso  ? Al
   Al13       1.0     0.218854     0.543311     0.149400    Uiso  ? Al
   Al14       1.0     0.782310     0.423271     0.833940    Uiso  ? Al
   Al15       1.0     0.894280     0.531438     0.581548    Uiso  ? Al
   Al16       1.0     0.439672     0.435679     0.400513    Uiso  ? Al
   Al17       1.0     0.552613     0.544235     0.150920    Uiso  ? Al
   Al18       1.0     0.226037     0.535385     0.651974    Uiso  ? Al
   Al19       1.0     0.782857     0.424102     0.333197    Uiso  ? Al
   Al20       1.0     0.892424     0.526488     0.089390    Uiso  ? Al
   Al21       1.0     0.437688     0.441809     0.896790    Uiso  ? Al
   Al22       1.0     0.557061     0.533584     0.651181    Uiso  ? Al
   Al23       1.0     0.113769     0.753335     0.400478    Uiso  ? Al
   Al24       1.0     0.449799     0.755301     0.401426    Uiso  ? Al
   Al25       1.0     0.557517     0.859305     0.160639    Uiso  ? Al
   Al26       1.0     0.113982     0.762374     0.903420    Uiso  ? Al
   Al27       1.0     0.775406     0.762998     0.406537    Uiso  ? Al
   Al28       1.0     0.900187     0.859713     0.159953    Uiso  ? Al
   Al29       1.0     0.442348     0.760206     0.902496    Uiso  ? Al
   Al30       1.0     0.558676     0.867249     0.644970    Uiso  ? Al
   Hf1        1.0     0.559587     0.196715     0.092743    Uiso  ? Hf
   Hf2        1.0     0.772718     0.772159     0.897318    Uiso  ? Hf
   Hf3        1.0     0.222949     0.870127     0.632285    Uiso  ? Hf
   Mg1        1.0     0.111799     0.422137     0.838987    Uiso  ? Mg
   Mg2        1.0     0.225969     0.865642     0.148692    Uiso  ? Mg
   Mg3        1.0     0.888548     0.871824     0.639631    Uiso  ? Mg
   N1         1.0     0.221626     0.205665     0.396262    Uiso  ? N
   N2         1.0     0.101832     0.110124     0.152305    Uiso  ? N
   N3         1.0     0.887566     0.206970     0.898367    Uiso  ? N
   N4         1.0     0.765699     0.120867     0.641895    Uiso  ? N
   N5         1.0     0.558333     0.199348     0.385330    Uiso  ? N
   N6         1.0     0.431609     0.089595     0.152766    Uiso  ? N
   N7         1.0     0.230683     0.189266     0.902797    Uiso  ? N
   N8         1.0     0.097605     0.120927     0.647542    Uiso  ? N
   N9         1.0     0.887848     0.207815     0.398535    Uiso  ? N
   N10        1.0     0.795330     0.090568     0.152690    Uiso  ? N
   N11        1.0     0.556933     0.199041     0.888523    Uiso  ? N
   N12        1.0     0.439328     0.102334     0.637137    Uiso  ? N
   N13        1.0     0.226953     0.538069     0.336075    Uiso  ? N
   N14        1.0     0.109898     0.422512     0.143690    Uiso  ? N
   N15        1.0     0.882623     0.527369     0.904647    Uiso  ? N
   N16        1.0     0.783760     0.429240     0.645979    Uiso  ? N
   N17        1.0     0.550223     0.539935     0.338975    Uiso  ? N
   N18        1.0     0.435552     0.446255     0.087514    Uiso  ? N
   N19        1.0     0.230230     0.550521     0.836508    Uiso  ? N
   N20        1.0     0.109365     0.429165     0.633351    Uiso  ? N
   N21        1.0     0.891533     0.531790     0.391237    Uiso  ? N
   N22        1.0     0.781290     0.422498     0.146441    Uiso  ? N
   N23        1.0     0.552004     0.540390     0.839019    Uiso  ? N
   N24        1.0     0.442617     0.433063     0.586713    Uiso  ? N
   N25        1.0     0.222412     0.873795     0.372287    Uiso  ? N
   N26        1.0     0.104261     0.752637     0.087620    Uiso  ? N
   N27        1.0     0.899472     0.882079     0.844956    Uiso  ? N
   N28        1.0     0.769313     0.758743     0.592476    Uiso  ? N
   N29        1.0     0.559004     0.863557     0.346421    Uiso  ? N
   N30        1.0     0.461580     0.752610     0.085410    Uiso  ? N
   N31        1.0     0.223945     0.870542     0.843305    Uiso  ? N
   N32        1.0     0.117313     0.741280     0.580883    Uiso  ? N
   N33        1.0     0.893129     0.863486     0.347699    Uiso  ? N
   N34        1.0     0.773730     0.769116     0.102774    Uiso  ? N
   N35        1.0     0.539007     0.875056     0.831603    Uiso  ? N
   N36        1.0     0.465222     0.746886     0.585874    Uiso  ? N
