
#======================================================================
# CRYSTAL DATA
#----------------------------------------------------------------------
data_VESTA_phase_1

_chemical_name_common                  'Al   Hf   Mg   N                      '
_cell_length_a                         9.624458
_cell_length_b                         9.644848
_cell_length_c                         10.191177
_cell_angle_alpha                      89.742386
_cell_angle_beta                       89.670670
_cell_angle_gamma                      59.989689
_cell_volume                           819.169173
_space_group_name_H-M_alt              'P 1'
_space_group_IT_number                 1

loop_
_space_group_symop_operation_xyz
   'x, y, z'

loop_
   _atom_site_label
   _atom_site_occupancy
   _atom_site_fract_x
   _atom_site_fract_y
   _atom_site_fract_z
   _atom_site_adp_type
   _atom_site_U_iso_or_equiv
   _atom_site_type_symbol
   Al1        1.0     0.104922     0.098645     0.333998    Uiso  ? Al
   Al2        1.0     0.215806     0.211002     0.149811    Uiso  ? Al
   Al3        1.0     0.772729     0.106787     0.828353    Uiso  ? Al
   Al4        1.0     0.882301     0.211507     0.581087    Uiso  ? Al
   Al5        1.0     0.438786     0.089340     0.397372    Uiso  ? Al
   Al6        1.0     0.104636     0.100720     0.834447    Uiso  ? Al
   Al7        1.0     0.224428     0.214069     0.650904    Uiso  ? Al
   Al8        1.0     0.786270     0.092977     0.337716    Uiso  ? Al
   Al9        1.0     0.897899     0.199356     0.081917    Uiso  ? Al
   Al10       1.0     0.436357     0.092189     0.899017    Uiso  ? Al
   Al11       1.0     0.557192     0.207085     0.579870    Uiso  ? Al
   Al12       1.0     0.113136     0.426561     0.399768    Uiso  ? Al
   Al13       1.0     0.214163     0.543213     0.149356    Uiso  ? Al
   Al14       1.0     0.774061     0.430246     0.899511    Uiso  ? Al
   Al15       1.0     0.887819     0.535038     0.643877    Uiso  ? Al
   Al16       1.0     0.439071     0.438462     0.394260    Uiso  ? Al
   Al17       1.0     0.559012     0.543794     0.147490    Uiso  ? Al
   Al18       1.0     0.224655     0.533906     0.649975    Uiso  ? Al
   Al19       1.0     0.774044     0.434297     0.397891    Uiso  ? Al
   Al20       1.0     0.893734     0.531034     0.155165    Uiso  ? Al
   Al21       1.0     0.439134     0.438429     0.898082    Uiso  ? Al
   Al22       1.0     0.562362     0.531036     0.649112    Uiso  ? Al
   Al23       1.0     0.112246     0.753753     0.398104    Uiso  ? Al
   Al24       1.0     0.451315     0.756756     0.397792    Uiso  ? Al
   Al25       1.0     0.553994     0.864600     0.153747    Uiso  ? Al
   Al26       1.0     0.114245     0.761939     0.900259    Uiso  ? Al
   Al27       1.0     0.778063     0.757013     0.402563    Uiso  ? Al
   Al28       1.0     0.899501     0.859153     0.155506    Uiso  ? Al
   Al29       1.0     0.442766     0.759592     0.898569    Uiso  ? Al
   Al30       1.0     0.558550     0.870606     0.643871    Uiso  ? Al
   Hf1        1.0     0.554147     0.205950     0.115046    Uiso  ? Hf
   Hf2        1.0     0.779321     0.761891     0.895881    Uiso  ? Hf
   Hf3        1.0     0.222525     0.870313     0.623924    Uiso  ? Hf
   Mg1        1.0     0.115939     0.426214     0.897647    Uiso  ? Mg
   Mg2        1.0     0.226981     0.864241     0.142835    Uiso  ? Mg
   Mg3        1.0     0.885978     0.871950     0.636316    Uiso  ? Mg
   N1         1.0     0.224420     0.208473     0.344910    Uiso  ? N
   N2         1.0     0.100888     0.105956     0.146059    Uiso  ? N
   N3         1.0     0.889944     0.201730     0.893125    Uiso  ? N
   N4         1.0     0.763114     0.119462     0.640819    Uiso  ? N
   N5         1.0     0.556024     0.204931     0.364954    Uiso  ? N
   N6         1.0     0.432792     0.079418     0.091496    Uiso  ? N
   N7         1.0     0.231453     0.196812     0.837346    Uiso  ? N
   N8         1.0     0.092621     0.118322     0.639881    Uiso  ? N
   N9         1.0     0.889210     0.203123     0.392689    Uiso  ? N
   N10        1.0     0.797115     0.087195     0.147523    Uiso  ? N
   N11        1.0     0.557966     0.203947     0.897595    Uiso  ? N
   N12        1.0     0.443837     0.091576     0.586588    Uiso  ? N
   N13        1.0     0.222818     0.537717     0.337691    Uiso  ? N
   N14        1.0     0.111870     0.427391     0.101503    Uiso  ? N
   N15        1.0     0.882130     0.530298     0.830701    Uiso  ? N
   N16        1.0     0.773015     0.435119     0.586121    Uiso  ? N
   N17        1.0     0.556225     0.539968     0.336164    Uiso  ? N
   N18        1.0     0.432835     0.452809     0.091203    Uiso  ? N
   N19        1.0     0.229946     0.548123     0.834411    Uiso  ? N
   N20        1.0     0.112185     0.428250     0.589735    Uiso  ? N
   N21        1.0     0.890061     0.536764     0.343106    Uiso  ? N
   N22        1.0     0.776907     0.431013     0.091557    Uiso  ? N
   N23        1.0     0.557229     0.536812     0.837742    Uiso  ? N
   N24        1.0     0.442777     0.432401     0.584126    Uiso  ? N
   N25        1.0     0.223377     0.872955     0.373554    Uiso  ? N
   N26        1.0     0.104570     0.752703     0.087191    Uiso  ? N
   N27        1.0     0.897135     0.880890     0.845110    Uiso  ? N
   N28        1.0     0.771379     0.752782     0.589047    Uiso  ? N
   N29        1.0     0.556225     0.870473     0.340943    Uiso  ? N
   N30        1.0     0.461880     0.752346     0.083791    Uiso  ? N
   N31        1.0     0.225135     0.869792     0.840912    Uiso  ? N
   N32        1.0     0.116244     0.740504     0.581278    Uiso  ? N
   N33        1.0     0.892233     0.863796     0.347188    Uiso  ? N
   N34        1.0     0.777964     0.760043     0.103268    Uiso  ? N
   N35        1.0     0.541756     0.879086     0.832621    Uiso  ? N
   N36        1.0     0.466413     0.747364     0.586016    Uiso  ? N
