
#======================================================================
# CRYSTAL DATA
#----------------------------------------------------------------------
data_VESTA_phase_1

_chemical_name_common                  'Al   Hf   Mg   N                      '
_cell_length_a                         9.628527
_cell_length_b                         9.648633
_cell_length_c                         10.246095
_cell_angle_alpha                      90.309998
_cell_angle_beta                       90.124313
_cell_angle_gamma                      60.018967
_cell_volume                           824.500941
_space_group_name_H-M_alt              'P 1'
_space_group_IT_number                 1

loop_
_space_group_symop_operation_xyz
   'x, y, z'

loop_
   _atom_site_label
   _atom_site_occupancy
   _atom_site_fract_x
   _atom_site_fract_y
   _atom_site_fract_z
   _atom_site_adp_type
   _atom_site_U_iso_or_equiv
   _atom_site_type_symbol
   Al1        1.0     0.108100     0.100192     0.329839    Uiso  ? Al
   Al2        1.0     0.215004     0.203154     0.079145    Uiso  ? Al
   Al3        1.0     0.776710     0.106860     0.819936    Uiso  ? Al
   Al4        1.0     0.882297     0.216705     0.577443    Uiso  ? Al
   Al5        1.0     0.439218     0.094342     0.333655    Uiso  ? Al
   Al6        1.0     0.107052     0.102834     0.832832    Uiso  ? Al
   Al7        1.0     0.217730     0.215622     0.575280    Uiso  ? Al
   Al8        1.0     0.783315     0.095371     0.333774    Uiso  ? Al
   Al9        1.0     0.895155     0.206135     0.078929    Uiso  ? Al
   Al10       1.0     0.430225     0.106618     0.822432    Uiso  ? Al
   Al11       1.0     0.556615     0.204076     0.573499    Uiso  ? Al
   Al12       1.0     0.111350     0.422861     0.329848    Uiso  ? Al
   Al13       1.0     0.218672     0.542796     0.142937    Uiso  ? Al
   Al14       1.0     0.782461     0.422549     0.827750    Uiso  ? Al
   Al15       1.0     0.891558     0.536724     0.577336    Uiso  ? Al
   Al16       1.0     0.440038     0.435761     0.393878    Uiso  ? Al
   Al17       1.0     0.553122     0.543772     0.144776    Uiso  ? Al
   Al18       1.0     0.225045     0.535716     0.644667    Uiso  ? Al
   Al19       1.0     0.782479     0.423059     0.328477    Uiso  ? Al
   Al20       1.0     0.891891     0.527445     0.082764    Uiso  ? Al
   Al21       1.0     0.436535     0.443934     0.889408    Uiso  ? Al
   Al22       1.0     0.557977     0.533596     0.643922    Uiso  ? Al
   Al23       1.0     0.114737     0.753253     0.392709    Uiso  ? Al
   Al24       1.0     0.451521     0.755592     0.394649    Uiso  ? Al
   Al25       1.0     0.551944     0.862680     0.146499    Uiso  ? Al
   Al26       1.0     0.113679     0.763882     0.897118    Uiso  ? Al
   Al27       1.0     0.783479     0.751650     0.329868    Uiso  ? Al
   Al28       1.0     0.902122     0.863685     0.143210    Uiso  ? Al
   Al29       1.0     0.440384     0.761465     0.897059    Uiso  ? Al
   Al30       1.0     0.555619     0.868411     0.642821    Uiso  ? Al
   Hf1        1.0     0.557993     0.199459     0.086425    Uiso  ? Hf
   Hf2        1.0     0.778417     0.761645     0.854589    Uiso  ? Hf
   Hf3        1.0     0.223100     0.870293     0.624085    Uiso  ? Hf
   Mg1        1.0     0.111871     0.421761     0.832920    Uiso  ? Mg
   Mg2        1.0     0.225851     0.866124     0.142951    Uiso  ? Mg
   Mg3        1.0     0.886120     0.874016     0.623494    Uiso  ? Mg
   N1         1.0     0.222421     0.204866     0.389086    Uiso  ? N
   N2         1.0     0.101853     0.109526     0.144897    Uiso  ? N
   N3         1.0     0.886941     0.208038     0.890514    Uiso  ? N
   N4         1.0     0.765954     0.119167     0.634191    Uiso  ? N
   N5         1.0     0.558104     0.200340     0.376509    Uiso  ? N
   N6         1.0     0.431323     0.089864     0.143387    Uiso  ? N
   N7         1.0     0.227700     0.191978     0.895413    Uiso  ? N
   N8         1.0     0.098104     0.119754     0.639922    Uiso  ? N
   N9         1.0     0.888502     0.207381     0.391163    Uiso  ? N
   N10        1.0     0.794809     0.091438     0.143244    Uiso  ? N
   N11        1.0     0.554087     0.204459     0.880686    Uiso  ? N
   N12        1.0     0.440685     0.100698     0.630678    Uiso  ? N
   N13        1.0     0.227087     0.538110     0.331089    Uiso  ? N
   N14        1.0     0.110226     0.421867     0.138618    Uiso  ? N
   N15        1.0     0.883972     0.523950     0.900722    Uiso  ? N
   N16        1.0     0.784007     0.427627     0.637085    Uiso  ? N
   N17        1.0     0.550814     0.540130     0.334529    Uiso  ? N
   N18        1.0     0.435092     0.447063     0.082097    Uiso  ? N
   N19        1.0     0.228090     0.552233     0.830447    Uiso  ? N
   N20        1.0     0.109967     0.428377     0.623984    Uiso  ? N
   N21        1.0     0.889036     0.536656     0.385751    Uiso  ? N
   N22        1.0     0.781392     0.421874     0.140818    Uiso  ? N
   N23        1.0     0.551872     0.542162     0.832889    Uiso  ? N
   N24        1.0     0.442767     0.432596     0.581308    Uiso  ? N
   N25        1.0     0.223367     0.874150     0.367425    Uiso  ? N
   N26        1.0     0.108447     0.751039     0.082114    Uiso  ? N
   N27        1.0     0.897630     0.887623     0.849123    Uiso  ? N
   N28        1.0     0.776303     0.745853     0.643657    Uiso  ? N
   N29        1.0     0.557615     0.864950     0.339164    Uiso  ? N
   N30        1.0     0.459114     0.751141     0.080446    Uiso  ? N
   N31        1.0     0.223014     0.871423     0.836518    Uiso  ? N
   N32        1.0     0.116847     0.741431     0.574794    Uiso  ? N
   N33        1.0     0.895461     0.865676     0.340264    Uiso  ? N
   N34        1.0     0.779652     0.757671     0.122745    Uiso  ? N
   N35        1.0     0.531332     0.882653     0.835630    Uiso  ? N
   N36        1.0     0.466800     0.747096     0.580301    Uiso  ? N
