
#======================================================================
# CRYSTAL DATA
#----------------------------------------------------------------------
data_VESTA_phase_1

_chemical_name_common                  'Al   Hf   Mg   N                      '
_cell_length_a                         9.621744
_cell_length_b                         9.614262
_cell_length_c                         10.309158
_cell_angle_alpha                      89.938454
_cell_angle_beta                       89.878746
_cell_angle_gamma                      59.925144
_cell_volume                           825.267093
_space_group_name_H-M_alt              'P 1'
_space_group_IT_number                 1

loop_
_space_group_symop_operation_xyz
   'x, y, z'

loop_
   _atom_site_label
   _atom_site_occupancy
   _atom_site_fract_x
   _atom_site_fract_y
   _atom_site_fract_z
   _atom_site_adp_type
   _atom_site_U_iso_or_equiv
   _atom_site_type_symbol
   Al1        1.0     0.108017     0.100988     0.334047    Uiso  ? Al
   Al2        1.0     0.218930     0.198983     0.085584    Uiso  ? Al
   Al3        1.0     0.776466     0.105806     0.824719    Uiso  ? Al
   Al4        1.0     0.880607     0.216774     0.580923    Uiso  ? Al
   Al5        1.0     0.439271     0.093649     0.339763    Uiso  ? Al
   Al6        1.0     0.107049     0.104050     0.838015    Uiso  ? Al
   Al7        1.0     0.220063     0.210085     0.581441    Uiso  ? Al
   Al8        1.0     0.783168     0.093693     0.340483    Uiso  ? Al
   Al9        1.0     0.894802     0.207172     0.084441    Uiso  ? Al
   Al10       1.0     0.433801     0.102861     0.825606    Uiso  ? Al
   Al11       1.0     0.557122     0.203135     0.578704    Uiso  ? Al
   Al12       1.0     0.110757     0.432145     0.393729    Uiso  ? Al
   Al13       1.0     0.217251     0.540682     0.150422    Uiso  ? Al
   Al14       1.0     0.778925     0.420960     0.829465    Uiso  ? Al
   Al15       1.0     0.891506     0.538986     0.645505    Uiso  ? Al
   Al16       1.0     0.439569     0.435533     0.399320    Uiso  ? Al
   Al17       1.0     0.552639     0.544869     0.148293    Uiso  ? Al
   Al18       1.0     0.223869     0.534211     0.650382    Uiso  ? Al
   Al19       1.0     0.779302     0.421290     0.334004    Uiso  ? Al
   Al20       1.0     0.898727     0.533065     0.156594    Uiso  ? Al
   Al21       1.0     0.436777     0.442551     0.895817    Uiso  ? Al
   Al22       1.0     0.553478     0.534228     0.648472    Uiso  ? Al
   Al23       1.0     0.113277     0.754995     0.400018    Uiso  ? Al
   Al24       1.0     0.449434     0.755842     0.400970    Uiso  ? Al
   Al25       1.0     0.558324     0.858205     0.160837    Uiso  ? Al
   Al26       1.0     0.112840     0.762743     0.902452    Uiso  ? Al
   Al27       1.0     0.778662     0.755504     0.405526    Uiso  ? Al
   Al28       1.0     0.901107     0.859830     0.159429    Uiso  ? Al
   Al29       1.0     0.441546     0.762110     0.901230    Uiso  ? Al
   Al30       1.0     0.560278     0.865441     0.644292    Uiso  ? Al
   Hf1        1.0     0.558780     0.198692     0.093405    Uiso  ? Hf
   Hf2        1.0     0.776133     0.765300     0.900896    Uiso  ? Hf
   Hf3        1.0     0.221088     0.871886     0.630693    Uiso  ? Hf
   Mg1        1.0     0.116369     0.428509     0.895708    Uiso  ? Mg
   Mg2        1.0     0.225585     0.866026     0.147102    Uiso  ? Mg
   Mg3        1.0     0.886546     0.870994     0.638006    Uiso  ? Mg
   N1         1.0     0.224281     0.200365     0.395717    Uiso  ? N
   N2         1.0     0.101247     0.110603     0.150872    Uiso  ? N
   N3         1.0     0.887009     0.207771     0.896584    Uiso  ? N
   N4         1.0     0.765679     0.118653     0.640669    Uiso  ? N
   N5         1.0     0.558047     0.199665     0.383642    Uiso  ? N
   N6         1.0     0.434028     0.087393     0.151613    Uiso  ? N
   N7         1.0     0.233670     0.183957     0.900423    Uiso  ? N
   N8         1.0     0.095272     0.123412     0.647476    Uiso  ? N
   N9         1.0     0.888542     0.205814     0.396353    Uiso  ? N
   N10        1.0     0.795429     0.090063     0.150902    Uiso  ? N
   N11        1.0     0.555905     0.200942     0.888188    Uiso  ? N
   N12        1.0     0.440022     0.101363     0.636901    Uiso  ? N
   N13        1.0     0.225351     0.537418     0.337033    Uiso  ? N
   N14        1.0     0.114701     0.425335     0.107538    Uiso  ? N
   N15        1.0     0.886794     0.535712     0.835038    Uiso  ? N
   N16        1.0     0.776838     0.426801     0.637320    Uiso  ? N
   N17        1.0     0.548921     0.540612     0.338404    Uiso  ? N
   N18        1.0     0.434767     0.447993     0.087333    Uiso  ? N
   N19        1.0     0.228563     0.548946     0.833453    Uiso  ? N
   N20        1.0     0.108657     0.435528     0.589016    Uiso  ? N
   N21        1.0     0.891186     0.538066     0.344967    Uiso  ? N
   N22        1.0     0.779660     0.423178     0.141785    Uiso  ? N
   N23        1.0     0.550240     0.542048     0.838184    Uiso  ? N
   N24        1.0     0.440757     0.432307     0.586125    Uiso  ? N
   N25        1.0     0.222203     0.874110     0.372014    Uiso  ? N
   N26        1.0     0.105255     0.752237     0.087714    Uiso  ? N
   N27        1.0     0.896309     0.881397     0.845996    Uiso  ? N
   N28        1.0     0.770863     0.753682     0.588622    Uiso  ? N
   N29        1.0     0.559913     0.862500     0.346944    Uiso  ? N
   N30        1.0     0.461103     0.754060     0.084517    Uiso  ? N
   N31        1.0     0.222742     0.870872     0.842230    Uiso  ? N
   N32        1.0     0.116626     0.742309     0.581619    Uiso  ? N
   N33        1.0     0.893054     0.863090     0.348167    Uiso  ? N
   N34        1.0     0.777939     0.761902     0.106005    Uiso  ? N
   N35        1.0     0.542949     0.873719     0.831799    Uiso  ? N
   N36        1.0     0.463159     0.748335     0.586107    Uiso  ? N
