
#======================================================================
# CRYSTAL DATA
#----------------------------------------------------------------------
data_VESTA_phase_1

_chemical_name_common                  'Al   Hf   Mg   N                      '
_cell_length_a                         9.643189
_cell_length_b                         9.622329
_cell_length_c                         10.288243
_cell_angle_alpha                      89.991974
_cell_angle_beta                       89.963226
_cell_angle_gamma                      59.881702
_cell_volume                           825.759757
_space_group_name_H-M_alt              'P 1'
_space_group_IT_number                 1

loop_
_space_group_symop_operation_xyz
   'x, y, z'

loop_
   _atom_site_label
   _atom_site_occupancy
   _atom_site_fract_x
   _atom_site_fract_y
   _atom_site_fract_z
   _atom_site_adp_type
   _atom_site_U_iso_or_equiv
   _atom_site_type_symbol
   Al1        1.0     0.107355     0.101339     0.335677    Uiso  ? Al
   Al2        1.0     0.217828     0.200739     0.084250    Uiso  ? Al
   Al3        1.0     0.777696     0.104319     0.824661    Uiso  ? Al
   Al4        1.0     0.881552     0.216848     0.582651    Uiso  ? Al
   Al5        1.0     0.438785     0.094613     0.341543    Uiso  ? Al
   Al6        1.0     0.107462     0.102997     0.838036    Uiso  ? Al
   Al7        1.0     0.217017     0.216474     0.581131    Uiso  ? Al
   Al8        1.0     0.783137     0.095002     0.341907    Uiso  ? Al
   Al9        1.0     0.895317     0.205105     0.084217    Uiso  ? Al
   Al10       1.0     0.433760     0.102026     0.825351    Uiso  ? Al
   Al11       1.0     0.557164     0.203126     0.578997    Uiso  ? Al
   Al12       1.0     0.114391     0.422345     0.332909    Uiso  ? Al
   Al13       1.0     0.220430     0.544041     0.147690    Uiso  ? Al
   Al14       1.0     0.779497     0.422127     0.836406    Uiso  ? Al
   Al15       1.0     0.891362     0.536665     0.620830    Uiso  ? Al
   Al16       1.0     0.439607     0.436064     0.399745    Uiso  ? Al
   Al17       1.0     0.551593     0.545014     0.148697    Uiso  ? Al
   Al18       1.0     0.226522     0.535359     0.652634    Uiso  ? Al
   Al19       1.0     0.780033     0.422367     0.331500    Uiso  ? Al
   Al20       1.0     0.890044     0.535399     0.132942    Uiso  ? Al
   Al21       1.0     0.438146     0.441156     0.896669    Uiso  ? Al
   Al22       1.0     0.554968     0.533600     0.651005    Uiso  ? Al
   Al23       1.0     0.113722     0.753561     0.400439    Uiso  ? Al
   Al24       1.0     0.449695     0.755416     0.401255    Uiso  ? Al
   Al25       1.0     0.555629     0.860675     0.161892    Uiso  ? Al
   Al26       1.0     0.113267     0.763026     0.902261    Uiso  ? Al
   Al27       1.0     0.778715     0.756649     0.402696    Uiso  ? Al
   Al28       1.0     0.900868     0.861210     0.160955    Uiso  ? Al
   Al29       1.0     0.442237     0.760861     0.901126    Uiso  ? Al
   Al30       1.0     0.559402     0.865853     0.643706    Uiso  ? Al
   Hf1        1.0     0.559473     0.197373     0.094341    Uiso  ? Hf
   Hf2        1.0     0.773471     0.769724     0.902542    Uiso  ? Hf
   Hf3        1.0     0.222071     0.871101     0.630259    Uiso  ? Hf
   Mg1        1.0     0.116315     0.421663     0.848651    Uiso  ? Mg
   Mg2        1.0     0.225235     0.867312     0.147274    Uiso  ? Mg
   Mg3        1.0     0.887834     0.870420     0.637802    Uiso  ? Mg
   N1         1.0     0.221715     0.205824     0.395781    Uiso  ? N
   N2         1.0     0.101128     0.111667     0.151513    Uiso  ? N
   N3         1.0     0.887967     0.204946     0.896681    Uiso  ? N
   N4         1.0     0.765781     0.119224     0.640231    Uiso  ? N
   N5         1.0     0.557981     0.200184     0.383545    Uiso  ? N
   N6         1.0     0.432011     0.089212     0.152434    Uiso  ? N
   N7         1.0     0.232720     0.186080     0.901266    Uiso  ? N
   N8         1.0     0.096603     0.121880     0.646133    Uiso  ? N
   N9         1.0     0.887774     0.207817     0.397390    Uiso  ? N
   N10        1.0     0.795649     0.090482     0.152016    Uiso  ? N
   N11        1.0     0.557005     0.198719     0.888600    Uiso  ? N
   N12        1.0     0.439977     0.101152     0.635489    Uiso  ? N
   N13        1.0     0.227626     0.538919     0.335742    Uiso  ? N
   N14        1.0     0.117043     0.420364     0.138447    Uiso  ? N
   N15        1.0     0.881080     0.532289     0.880598    Uiso  ? N
   N16        1.0     0.780103     0.427405     0.643745    Uiso  ? N
   N17        1.0     0.549376     0.540586     0.338471    Uiso  ? N
   N18        1.0     0.435943     0.446576     0.087407    Uiso  ? N
   N19        1.0     0.231234     0.550655     0.837255    Uiso  ? N
   N20        1.0     0.110999     0.428879     0.632317    Uiso  ? N
   N21        1.0     0.888995     0.538170     0.350241    Uiso  ? N
   N22        1.0     0.777763     0.421376     0.141157    Uiso  ? N
   N23        1.0     0.550761     0.540486     0.839384    Uiso  ? N
   N24        1.0     0.442199     0.432239     0.586795    Uiso  ? N
   N25        1.0     0.222067     0.874646     0.373201    Uiso  ? N
   N26        1.0     0.103975     0.754023     0.087735    Uiso  ? N
   N27        1.0     0.898816     0.880105     0.844378    Uiso  ? N
   N28        1.0     0.770352     0.754896     0.588316    Uiso  ? N
   N29        1.0     0.558330     0.864110     0.348187    Uiso  ? N
   N30        1.0     0.460884     0.754239     0.085227    Uiso  ? N
   N31        1.0     0.223673     0.870819     0.842482    Uiso  ? N
   N32        1.0     0.117552     0.741055     0.581725    Uiso  ? N
   N33        1.0     0.893374     0.864148     0.349377    Uiso  ? N
   N34        1.0     0.773897     0.768957     0.108432    Uiso  ? N
   N35        1.0     0.541284     0.873566     0.830987    Uiso  ? N
   N36        1.0     0.464512     0.746681     0.586482    Uiso  ? N
