
#======================================================================
# CRYSTAL DATA
#----------------------------------------------------------------------
data_VESTA_phase_1

_chemical_name_common                  'Al   Hf   Mg   N                      '
_cell_length_a                         9.628007
_cell_length_b                         9.657726
_cell_length_c                         10.135829
_cell_angle_alpha                      90.130188
_cell_angle_beta                       89.907539
_cell_angle_gamma                      60.086063
_cell_volume                           816.909359
_space_group_name_H-M_alt              'P 1'
_space_group_IT_number                 1

loop_
_space_group_symop_operation_xyz
   'x, y, z'

loop_
   _atom_site_label
   _atom_site_occupancy
   _atom_site_fract_x
   _atom_site_fract_y
   _atom_site_fract_z
   _atom_site_adp_type
   _atom_site_U_iso_or_equiv
   _atom_site_type_symbol
   Al1        1.0     0.109152     0.097943     0.324957    Uiso  ? Al
   Al2        1.0     0.215242     0.205149     0.076617    Uiso  ? Al
   Al3        1.0     0.776626     0.102638     0.821845    Uiso  ? Al
   Al4        1.0     0.882052     0.215006     0.575562    Uiso  ? Al
   Al5        1.0     0.440781     0.088876     0.331121    Uiso  ? Al
   Al6        1.0     0.106566     0.102395     0.828431    Uiso  ? Al
   Al7        1.0     0.218296     0.214879     0.573961    Uiso  ? Al
   Al8        1.0     0.788086     0.089428     0.327715    Uiso  ? Al
   Al9        1.0     0.893585     0.208273     0.076050    Uiso  ? Al
   Al10       1.0     0.436824     0.096137     0.824215    Uiso  ? Al
   Al11       1.0     0.557668     0.200804     0.574217    Uiso  ? Al
   Al12       1.0     0.110450     0.423265     0.327666    Uiso  ? Al
   Al13       1.0     0.217668     0.546163     0.142188    Uiso  ? Al
   Al14       1.0     0.778731     0.423376     0.824726    Uiso  ? Al
   Al15       1.0     0.893126     0.535617     0.569582    Uiso  ? Al
   Al16       1.0     0.439598     0.432477     0.391168    Uiso  ? Al
   Al17       1.0     0.560532     0.544197     0.087458    Uiso  ? Al
   Al18       1.0     0.225869     0.534562     0.641858    Uiso  ? Al
   Al19       1.0     0.778115     0.426260     0.326886    Uiso  ? Al
   Al20       1.0     0.890891     0.532206     0.081254    Uiso  ? Al
   Al21       1.0     0.437744     0.437665     0.887224    Uiso  ? Al
   Al22       1.0     0.564577     0.533488     0.583640    Uiso  ? Al
   Al23       1.0     0.113195     0.753748     0.387298    Uiso  ? Al
   Al24       1.0     0.447416     0.759456     0.326318    Uiso  ? Al
   Al25       1.0     0.550996     0.868398     0.080015    Uiso  ? Al
   Al26       1.0     0.118260     0.756784     0.890443    Uiso  ? Al
   Al27       1.0     0.779251     0.760392     0.320327    Uiso  ? Al
   Al28       1.0     0.892757     0.871298     0.082987    Uiso  ? Al
   Al29       1.0     0.445909     0.757055     0.826711    Uiso  ? Al
   Al30       1.0     0.560636     0.868572     0.571000    Uiso  ? Al
   Hf1        1.0     0.555281     0.202120     0.093933    Uiso  ? Hf
   Hf2        1.0     0.777903     0.758464     0.833239    Uiso  ? Hf
   Hf3        1.0     0.221495     0.875212     0.600733    Uiso  ? Hf
   Mg1        1.0     0.113265     0.418917     0.831448    Uiso  ? Mg
   Mg2        1.0     0.224431     0.877711     0.087371    Uiso  ? Mg
   Mg3        1.0     0.877027     0.878291     0.573428    Uiso  ? Mg
   N1         1.0     0.222738     0.204507     0.385590    Uiso  ? N
   N2         1.0     0.101218     0.110661     0.139576    Uiso  ? N
   N3         1.0     0.886667     0.207641     0.886344    Uiso  ? N
   N4         1.0     0.768686     0.112723     0.635266    Uiso  ? N
   N5         1.0     0.558274     0.199975     0.369030    Uiso  ? N
   N6         1.0     0.432889     0.083557     0.142109    Uiso  ? N
   N7         1.0     0.229530     0.189386     0.891086    Uiso  ? N
   N8         1.0     0.096117     0.121711     0.637914    Uiso  ? N
   N9         1.0     0.888814     0.206566     0.386796    Uiso  ? N
   N10        1.0     0.796605     0.088891     0.137727    Uiso  ? N
   N11        1.0     0.554063     0.202104     0.882904    Uiso  ? N
   N12        1.0     0.444769     0.091546     0.631535    Uiso  ? N
   N13        1.0     0.226620     0.538766     0.330797    Uiso  ? N
   N14        1.0     0.110621     0.423274     0.134169    Uiso  ? N
   N15        1.0     0.882483     0.527333     0.895775    Uiso  ? N
   N16        1.0     0.781098     0.428901     0.633932    Uiso  ? N
   N17        1.0     0.558816     0.540254     0.380541    Uiso  ? N
   N18        1.0     0.433092     0.446347     0.085586    Uiso  ? N
   N19        1.0     0.230302     0.547872     0.828066    Uiso  ? N
   N20        1.0     0.109298     0.428377     0.620295    Uiso  ? N
   N21        1.0     0.887979     0.539482     0.378356    Uiso  ? N
   N22        1.0     0.777801     0.424571     0.138090    Uiso  ? N
   N23        1.0     0.560074     0.539662     0.876559    Uiso  ? N
   N24        1.0     0.443069     0.425679     0.583314    Uiso  ? N
   N25        1.0     0.224904     0.877074     0.381118    Uiso  ? N
   N26        1.0     0.111561     0.749882     0.079308    Uiso  ? N
   N27        1.0     0.887988     0.888674     0.884508    Uiso  ? N
   N28        1.0     0.772209     0.751117     0.630428    Uiso  ? N
   N29        1.0     0.558520     0.870275     0.383379    Uiso  ? N
   N30        1.0     0.457973     0.754240     0.140327    Uiso  ? N
   N31        1.0     0.219738     0.874680     0.844406    Uiso  ? N
   N32        1.0     0.117234     0.740392     0.577239    Uiso  ? N
   N33        1.0     0.888569     0.870689     0.364053    Uiso  ? N
   N34        1.0     0.776043     0.762044     0.125641    Uiso  ? N
   N35        1.0     0.538098     0.880131     0.890016    Uiso  ? N
   N36        1.0     0.466210     0.749944     0.636256    Uiso  ? N
