
#======================================================================
# CRYSTAL DATA
#----------------------------------------------------------------------
data_VESTA_phase_1

_chemical_name_common                  'Al   Hf   Mg   N                      '
_cell_length_a                         9.583064
_cell_length_b                         9.602952
_cell_length_c                         10.118423
_cell_angle_alpha                      89.932617
_cell_angle_beta                       89.959610
_cell_angle_gamma                      59.957596
_cell_volume                           806.058569
_space_group_name_H-M_alt              'P 1'
_space_group_IT_number                 1

loop_
_space_group_symop_operation_xyz
   'x, y, z'

loop_
   _atom_site_label
   _atom_site_occupancy
   _atom_site_fract_x
   _atom_site_fract_y
   _atom_site_fract_z
   _atom_site_adp_type
   _atom_site_U_iso_or_equiv
   _atom_site_type_symbol
   Al1        1.0     0.108361     0.098441     0.312672    Uiso  ? Al
   Al2        1.0     0.216162     0.205776     0.066859    Uiso  ? Al
   Al3        1.0     0.782003     0.099325     0.811259    Uiso  ? Al
   Al4        1.0     0.882102     0.214195     0.566126    Uiso  ? Al
   Al5        1.0     0.441284     0.091510     0.322227    Uiso  ? Al
   Al6        1.0     0.109101     0.101381     0.819755    Uiso  ? Al
   Al7        1.0     0.218490     0.213246     0.563420    Uiso  ? Al
   Al8        1.0     0.783464     0.091889     0.320552    Uiso  ? Al
   Al9        1.0     0.892871     0.208728     0.066888    Uiso  ? Al
   Al10       1.0     0.436474     0.095512     0.811894    Uiso  ? Al
   Al11       1.0     0.555932     0.206505     0.565579    Uiso  ? Al
   Al12       1.0     0.112145     0.427409     0.316969    Uiso  ? Al
   Al13       1.0     0.217936     0.544109     0.066849    Uiso  ? Al
   Al14       1.0     0.777420     0.424055     0.815988    Uiso  ? Al
   Al15       1.0     0.890200     0.535275     0.560334    Uiso  ? Al
   Al16       1.0     0.441706     0.433600     0.322022    Uiso  ? Al
   Al17       1.0     0.557398     0.542426     0.066528    Uiso  ? Al
   Al18       1.0     0.220709     0.533733     0.563980    Uiso  ? Al
   Al19       1.0     0.776673     0.427228     0.315864    Uiso  ? Al
   Al20       1.0     0.890817     0.532667     0.072620    Uiso  ? Al
   Al21       1.0     0.441341     0.432726     0.812002    Uiso  ? Al
   Al22       1.0     0.561530     0.533067     0.566354    Uiso  ? Al
   Al23       1.0     0.109373     0.759017     0.310981    Uiso  ? Al
   Al24       1.0     0.447440     0.757836     0.312925    Uiso  ? Al
   Al25       1.0     0.551330     0.868512     0.071157    Uiso  ? Al
   Al26       1.0     0.118118     0.756516     0.819943    Uiso  ? Al
   Al27       1.0     0.778497     0.761352     0.311200    Uiso  ? Al
   Al28       1.0     0.897259     0.870244     0.073717    Uiso  ? Al
   Al29       1.0     0.445955     0.757051     0.818479    Uiso  ? Al
   Al30       1.0     0.559905     0.868907     0.561734    Uiso  ? Al
   Hf1        1.0     0.553617     0.206434     0.072942    Uiso  ? Hf
   Hf2        1.0     0.780290     0.759167     0.824617    Uiso  ? Hf
   Hf3        1.0     0.220558     0.873329     0.580380    Uiso  ? Hf
   Mg1        1.0     0.116833     0.423140     0.816853    Uiso  ? Mg
   Mg2        1.0     0.222183     0.873876     0.063115    Uiso  ? Mg
   Mg3        1.0     0.885007     0.872721     0.561482    Uiso  ? Mg
   N1         1.0     0.221533     0.204658     0.374762    Uiso  ? N
   N2         1.0     0.102832     0.108690     0.127900    Uiso  ? N
   N3         1.0     0.887675     0.207295     0.876862    Uiso  ? N
   N4         1.0     0.771505     0.109084     0.625238    Uiso  ? N
   N5         1.0     0.554944     0.205545     0.368964    Uiso  ? N
   N6         1.0     0.436167     0.085664     0.132588    Uiso  ? N
   N7         1.0     0.229848     0.192115     0.880823    Uiso  ? N
   N8         1.0     0.098700     0.117670     0.628582    Uiso  ? N
   N9         1.0     0.888338     0.207016     0.376836    Uiso  ? N
   N10        1.0     0.792180     0.090830     0.129126    Uiso  ? N
   N11        1.0     0.554838     0.204228     0.865832    Uiso  ? N
   N12        1.0     0.444185     0.092154     0.620686    Uiso  ? N
   N13        1.0     0.222018     0.539582     0.374358    Uiso  ? N
   N14        1.0     0.114357     0.426266     0.125760    Uiso  ? N
   N15        1.0     0.883375     0.526897     0.885887    Uiso  ? N
   N16        1.0     0.777885     0.429319     0.625139    Uiso  ? N
   N17        1.0     0.556264     0.538683     0.377553    Uiso  ? N
   N18        1.0     0.438096     0.443754     0.131742    Uiso  ? N
   N19        1.0     0.231719     0.543692     0.880981    Uiso  ? N
   N20        1.0     0.108953     0.428693     0.611353    Uiso  ? N
   N21        1.0     0.886955     0.539400     0.368351    Uiso  ? N
   N22        1.0     0.775533     0.426260     0.127292    Uiso  ? N
   N23        1.0     0.556674     0.536128     0.874804    Uiso  ? N
   N24        1.0     0.443694     0.427698     0.621429    Uiso  ? N
   N25        1.0     0.221943     0.872415     0.369436    Uiso  ? N
   N26        1.0     0.108482     0.753804     0.126502    Uiso  ? N
   N27        1.0     0.898428     0.883773     0.881023    Uiso  ? N
   N28        1.0     0.772378     0.751203     0.621566    Uiso  ? N
   N29        1.0     0.556487     0.870116     0.373247    Uiso  ? N
   N30        1.0     0.457767     0.752296     0.127697    Uiso  ? N
   N31        1.0     0.222703     0.875314     0.847143    Uiso  ? N
   N32        1.0     0.114772     0.742923     0.632260    Uiso  ? N
   N33        1.0     0.888144     0.871348     0.359635    Uiso  ? N
   N34        1.0     0.776867     0.762669     0.115925    Uiso  ? N
   N35        1.0     0.539955     0.879852     0.880415    Uiso  ? N
   N36        1.0     0.464102     0.749789     0.627787    Uiso  ? N
