
#======================================================================
# CRYSTAL DATA
#----------------------------------------------------------------------
data_VESTA_phase_1

_chemical_name_common                  'Al   Hf   Mg   N                      '
_cell_length_a                         9.592857
_cell_length_b                         9.636753
_cell_length_c                         10.264316
_cell_angle_alpha                      90.253296
_cell_angle_beta                       90.125832
_cell_angle_gamma                      60.012730
_cell_volume                           821.846664
_space_group_name_H-M_alt              'P 1'
_space_group_IT_number                 1

loop_
_space_group_symop_operation_xyz
   'x, y, z'

loop_
   _atom_site_label
   _atom_site_occupancy
   _atom_site_fract_x
   _atom_site_fract_y
   _atom_site_fract_z
   _atom_site_adp_type
   _atom_site_U_iso_or_equiv
   _atom_site_type_symbol
   Al1        1.0     0.107378     0.101569     0.330750    Uiso  ? Al
   Al2        1.0     0.215495     0.202398     0.079978    Uiso  ? Al
   Al3        1.0     0.778523     0.101943     0.823473    Uiso  ? Al
   Al4        1.0     0.882280     0.215815     0.578645    Uiso  ? Al
   Al5        1.0     0.441654     0.090621     0.332367    Uiso  ? Al
   Al6        1.0     0.107614     0.103368     0.832905    Uiso  ? Al
   Al7        1.0     0.218429     0.215040     0.576404    Uiso  ? Al
   Al8        1.0     0.784796     0.092129     0.330923    Uiso  ? Al
   Al9        1.0     0.894949     0.207074     0.079312    Uiso  ? Al
   Al10       1.0     0.436655     0.097159     0.824311    Uiso  ? Al
   Al11       1.0     0.557571     0.203222     0.576891    Uiso  ? Al
   Al12       1.0     0.110566     0.422896     0.329322    Uiso  ? Al
   Al13       1.0     0.219293     0.542210     0.145261    Uiso  ? Al
   Al14       1.0     0.783053     0.422388     0.828466    Uiso  ? Al
   Al15       1.0     0.892224     0.535331     0.572777    Uiso  ? Al
   Al16       1.0     0.440938     0.433545     0.395804    Uiso  ? Al
   Al17       1.0     0.552842     0.542954     0.146830    Uiso  ? Al
   Al18       1.0     0.224053     0.536707     0.645234    Uiso  ? Al
   Al19       1.0     0.783373     0.422850     0.328091    Uiso  ? Al
   Al20       1.0     0.889402     0.531681     0.083290    Uiso  ? Al
   Al21       1.0     0.436859     0.442350     0.889455    Uiso  ? Al
   Al22       1.0     0.557513     0.534264     0.644851    Uiso  ? Al
   Al23       1.0     0.114760     0.753063     0.390354    Uiso  ? Al
   Al24       1.0     0.448973     0.753892     0.392652    Uiso  ? Al
   Al25       1.0     0.554417     0.869309     0.082218    Uiso  ? Al
   Al26       1.0     0.117835     0.761104     0.901343    Uiso  ? Al
   Al27       1.0     0.779062     0.759118     0.323461    Uiso  ? Al
   Al28       1.0     0.893220     0.869609     0.096647    Uiso  ? Al
   Al29       1.0     0.439386     0.756907     0.899942    Uiso  ? Al
   Al30       1.0     0.562788     0.872924     0.571991    Uiso  ? Al
   Hf1        1.0     0.556318     0.200435     0.086766    Uiso  ? Hf
   Hf2        1.0     0.779584     0.760206     0.833359    Uiso  ? Hf
   Hf3        1.0     0.223097     0.869851     0.625154    Uiso  ? Hf
   Mg1        1.0     0.113120     0.420538     0.834832    Uiso  ? Mg
   Mg2        1.0     0.225310     0.866943     0.147925    Uiso  ? Mg
   Mg3        1.0     0.876820     0.879547     0.571923    Uiso  ? Mg
   N1         1.0     0.223219     0.205099     0.389992    Uiso  ? N
   N2         1.0     0.101350     0.110342     0.146004    Uiso  ? N
   N3         1.0     0.887685     0.207580     0.890764    Uiso  ? N
   N4         1.0     0.769919     0.112578     0.638953    Uiso  ? N
   N5         1.0     0.558172     0.200347     0.377953    Uiso  ? N
   N6         1.0     0.434639     0.083665     0.145718    Uiso  ? N
   N7         1.0     0.230179     0.190111     0.895720    Uiso  ? N
   N8         1.0     0.098333     0.120024     0.640812    Uiso  ? N
   N9         1.0     0.887472     0.207544     0.392124    Uiso  ? N
   N10        1.0     0.794365     0.091004     0.142974    Uiso  ? N
   N11        1.0     0.553505     0.205283     0.880885    Uiso  ? N
   N12        1.0     0.444383     0.093327     0.634601    Uiso  ? N
   N13        1.0     0.227676     0.536818     0.332270    Uiso  ? N
   N14        1.0     0.110430     0.421649     0.137746    Uiso  ? N
   N15        1.0     0.880825     0.530035     0.900283    Uiso  ? N
   N16        1.0     0.784330     0.427897     0.637898    Uiso  ? N
   N17        1.0     0.551339     0.538861     0.335421    Uiso  ? N
   N18        1.0     0.435140     0.446256     0.082335    Uiso  ? N
   N19        1.0     0.227030     0.553272     0.830811    Uiso  ? N
   N20        1.0     0.109317     0.428455     0.625516    Uiso  ? N
   N21        1.0     0.887703     0.538761     0.383499    Uiso  ? N
   N22        1.0     0.781376     0.422239     0.140319    Uiso  ? N
   N23        1.0     0.552167     0.541757     0.833380    Uiso  ? N
   N24        1.0     0.443639     0.430703     0.583518    Uiso  ? N
   N25        1.0     0.222619     0.874989     0.366212    Uiso  ? N
   N26        1.0     0.112838     0.748846     0.086090    Uiso  ? N
   N27        1.0     0.888153     0.890383     0.891290    Uiso  ? N
   N28        1.0     0.772647     0.752451     0.632557    Uiso  ? N
   N29        1.0     0.560411     0.872859     0.383539    Uiso  ? N
   N30        1.0     0.455576     0.748126     0.084585    Uiso  ? N
   N31        1.0     0.222714     0.871764     0.837043    Uiso  ? N
   N32        1.0     0.117531     0.740997     0.575544    Uiso  ? N
   N33        1.0     0.889295     0.870595     0.362502    Uiso  ? N
   N34        1.0     0.776214     0.759426     0.132959    Uiso  ? N
   N35        1.0     0.542134     0.884999     0.890425    Uiso  ? N
   N36        1.0     0.465306     0.744983     0.581785    Uiso  ? N
