
#======================================================================
# CRYSTAL DATA
#----------------------------------------------------------------------
data_VESTA_phase_1

_chemical_name_common                  'Al   Hf   Mg   N                      '
_cell_length_a                         9.629229
_cell_length_b                         9.638900
_cell_length_c                         10.241008
_cell_angle_alpha                      90.250916
_cell_angle_beta                       90.085739
_cell_angle_gamma                      59.976643
_cell_volume                           822.973254
_space_group_name_H-M_alt              'P 1'
_space_group_IT_number                 1

loop_
_space_group_symop_operation_xyz
   'x, y, z'

loop_
   _atom_site_label
   _atom_site_occupancy
   _atom_site_fract_x
   _atom_site_fract_y
   _atom_site_fract_z
   _atom_site_adp_type
   _atom_site_U_iso_or_equiv
   _atom_site_type_symbol
   Al1        1.0     0.107696     0.100699     0.329351    Uiso  ? Al
   Al2        1.0     0.215630     0.202775     0.079247    Uiso  ? Al
   Al3        1.0     0.776688     0.107059     0.819237    Uiso  ? Al
   Al4        1.0     0.882164     0.216485     0.576765    Uiso  ? Al
   Al5        1.0     0.438796     0.094399     0.333379    Uiso  ? Al
   Al6        1.0     0.107223     0.102796     0.833010    Uiso  ? Al
   Al7        1.0     0.218110     0.215396     0.574832    Uiso  ? Al
   Al8        1.0     0.783303     0.094979     0.333903    Uiso  ? Al
   Al9        1.0     0.894865     0.205918     0.079320    Uiso  ? Al
   Al10       1.0     0.431110     0.105262     0.820875    Uiso  ? Al
   Al11       1.0     0.556872     0.203600     0.573074    Uiso  ? Al
   Al12       1.0     0.109512     0.424203     0.328672    Uiso  ? Al
   Al13       1.0     0.218290     0.543458     0.142389    Uiso  ? Al
   Al14       1.0     0.781965     0.421828     0.827324    Uiso  ? Al
   Al15       1.0     0.894793     0.530245     0.578814    Uiso  ? Al
   Al16       1.0     0.439902     0.435502     0.393449    Uiso  ? Al
   Al17       1.0     0.552748     0.544283     0.144282    Uiso  ? Al
   Al18       1.0     0.225816     0.535480     0.644700    Uiso  ? Al
   Al19       1.0     0.782707     0.424289     0.327675    Uiso  ? Al
   Al20       1.0     0.891128     0.528816     0.080593    Uiso  ? Al
   Al21       1.0     0.437101     0.442953     0.889711    Uiso  ? Al
   Al22       1.0     0.557207     0.533561     0.643687    Uiso  ? Al
   Al23       1.0     0.114210     0.753279     0.392123    Uiso  ? Al
   Al24       1.0     0.450632     0.755347     0.393527    Uiso  ? Al
   Al25       1.0     0.559040     0.859420     0.149201    Uiso  ? Al
   Al26       1.0     0.113941     0.763501     0.897092    Uiso  ? Al
   Al27       1.0     0.777234     0.760911     0.396506    Uiso  ? Al
   Al28       1.0     0.898398     0.860281     0.147585    Uiso  ? Al
   Al29       1.0     0.441233     0.760856     0.896909    Uiso  ? Al
   Al30       1.0     0.556176     0.868108     0.640523    Uiso  ? Al
   Hf1        1.0     0.558571     0.198140     0.087255    Uiso  ? Hf
   Hf2        1.0     0.775957     0.766934     0.876054    Uiso  ? Hf
   Hf3        1.0     0.223182     0.870291     0.624032    Uiso  ? Hf
   Mg1        1.0     0.113519     0.421086     0.832994    Uiso  ? Mg
   Mg2        1.0     0.225364     0.866771     0.141768    Uiso  ? Mg
   Mg3        1.0     0.889752     0.873717     0.631292    Uiso  ? Mg
   N1         1.0     0.222003     0.205319     0.388639    Uiso  ? N
   N2         1.0     0.101474     0.110315     0.144531    Uiso  ? N
   N3         1.0     0.887078     0.207158     0.890860    Uiso  ? N
   N4         1.0     0.765699     0.120053     0.633887    Uiso  ? N
   N5         1.0     0.558092     0.199906     0.376322    Uiso  ? N
   N6         1.0     0.431579     0.088951     0.144260    Uiso  ? N
   N7         1.0     0.229429     0.190316     0.895409    Uiso  ? N
   N8         1.0     0.097788     0.120234     0.639900    Uiso  ? N
   N9         1.0     0.888126     0.207539     0.390574    Uiso  ? N
   N10        1.0     0.795412     0.090350     0.144012    Uiso  ? N
   N11        1.0     0.555236     0.202039     0.880971    Uiso  ? N
   N12        1.0     0.440120     0.101174     0.629891    Uiso  ? N
   N13        1.0     0.227000     0.537871     0.330519    Uiso  ? N
   N14        1.0     0.108765     0.423485     0.137008    Uiso  ? N
   N15        1.0     0.884599     0.523708     0.895309    Uiso  ? N
   N16        1.0     0.783270     0.427381     0.637898    Uiso  ? N
   N17        1.0     0.550786     0.539700     0.333880    Uiso  ? N
   N18        1.0     0.435254     0.446633     0.081968    Uiso  ? N
   N19        1.0     0.229053     0.551813     0.830663    Uiso  ? N
   N20        1.0     0.111172     0.427702     0.625552    Uiso  ? N
   N21        1.0     0.890812     0.533097     0.386799    Uiso  ? N
   N22        1.0     0.781177     0.423536     0.139426    Uiso  ? N
   N23        1.0     0.551817     0.541461     0.833021    Uiso  ? N
   N24        1.0     0.442879     0.432190     0.581025    Uiso  ? N
   N25        1.0     0.222722     0.874381     0.366342    Uiso  ? N
   N26        1.0     0.105425     0.752591     0.082458    Uiso  ? N
   N27        1.0     0.899547     0.884759     0.841075    Uiso  ? N
   N28        1.0     0.772297     0.754187     0.603820    Uiso  ? N
   N29        1.0     0.560892     0.863184     0.339602    Uiso  ? N
   N30        1.0     0.460263     0.752395     0.080847    Uiso  ? N
   N31        1.0     0.223570     0.871231     0.837113    Uiso  ? N
   N32        1.0     0.117823     0.741048     0.574207    Uiso  ? N
   N33        1.0     0.892618     0.863434     0.340628    Uiso  ? N
   N34        1.0     0.774230     0.767964     0.089797    Uiso  ? N
   N35        1.0     0.535161     0.878397     0.829184    Uiso  ? N
   N36        1.0     0.465772     0.746773     0.579507    Uiso  ? N
