
#======================================================================
# CRYSTAL DATA
#----------------------------------------------------------------------
data_VESTA_phase_1

_chemical_name_common                  'Al   Hf   Mg   N                      '
_cell_length_a                         9.628049
_cell_length_b                         9.645495
_cell_length_c                         10.171093
_cell_angle_alpha                      89.818268
_cell_angle_beta                       89.610344
_cell_angle_gamma                      59.969418
_cell_volume                           817.743508
_space_group_name_H-M_alt              'P 1'
_space_group_IT_number                 1

loop_
_space_group_symop_operation_xyz
   'x, y, z'

loop_
   _atom_site_label
   _atom_site_occupancy
   _atom_site_fract_x
   _atom_site_fract_y
   _atom_site_fract_z
   _atom_site_adp_type
   _atom_site_U_iso_or_equiv
   _atom_site_type_symbol
   Al1        1.0     0.105809     0.096069     0.332098    Uiso  ? Al
   Al2        1.0     0.216742     0.212192     0.150703    Uiso  ? Al
   Al3        1.0     0.774423     0.106927     0.826389    Uiso  ? Al
   Al4        1.0     0.884784     0.210133     0.578318    Uiso  ? Al
   Al5        1.0     0.437675     0.089824     0.396951    Uiso  ? Al
   Al6        1.0     0.110383     0.097303     0.860530    Uiso  ? Al
   Al7        1.0     0.222163     0.211651     0.651744    Uiso  ? Al
   Al8        1.0     0.784630     0.093228     0.337986    Uiso  ? Al
   Al9        1.0     0.894314     0.202267     0.084391    Uiso  ? Al
   Al10       1.0     0.437738     0.092343     0.898969    Uiso  ? Al
   Al11       1.0     0.556420     0.207419     0.580163    Uiso  ? Al
   Al12       1.0     0.112424     0.426254     0.399340    Uiso  ? Al
   Al13       1.0     0.214260     0.543119     0.150374    Uiso  ? Al
   Al14       1.0     0.774472     0.430417     0.899282    Uiso  ? Al
   Al15       1.0     0.888088     0.534024     0.643451    Uiso  ? Al
   Al16       1.0     0.438386     0.438755     0.394464    Uiso  ? Al
   Al17       1.0     0.558581     0.544517     0.148467    Uiso  ? Al
   Al18       1.0     0.223903     0.533976     0.648717    Uiso  ? Al
   Al19       1.0     0.773136     0.435185     0.396524    Uiso  ? Al
   Al20       1.0     0.893347     0.532613     0.154707    Uiso  ? Al
   Al21       1.0     0.439462     0.438564     0.897012    Uiso  ? Al
   Al22       1.0     0.562040     0.531596     0.647687    Uiso  ? Al
   Al23       1.0     0.112965     0.754944     0.397607    Uiso  ? Al
   Al24       1.0     0.447253     0.758784     0.397428    Uiso  ? Al
   Al25       1.0     0.554513     0.865256     0.154099    Uiso  ? Al
   Al26       1.0     0.113470     0.759975     0.902759    Uiso  ? Al
   Al27       1.0     0.776972     0.757299     0.402985    Uiso  ? Al
   Al28       1.0     0.898956     0.859060     0.156407    Uiso  ? Al
   Al29       1.0     0.446647     0.757467     0.900896    Uiso  ? Al
   Al30       1.0     0.556978     0.871558     0.642911    Uiso  ? Al
   Hf1        1.0     0.554438     0.206771     0.114488    Uiso  ? Hf
   Hf2        1.0     0.779861     0.762716     0.893975    Uiso  ? Hf
   Hf3        1.0     0.221435     0.870376     0.636062    Uiso  ? Hf
   Mg1        1.0     0.116498     0.425945     0.898317    Uiso  ? Mg
   Mg2        1.0     0.228164     0.862096     0.142027    Uiso  ? Mg
   Mg3        1.0     0.886013     0.872122     0.633400    Uiso  ? Mg
   N1         1.0     0.223480     0.207779     0.342117    Uiso  ? N
   N2         1.0     0.103649     0.105603     0.135084    Uiso  ? N
   N3         1.0     0.889050     0.202494     0.894377    Uiso  ? N
   N4         1.0     0.763716     0.119634     0.638337    Uiso  ? N
   N5         1.0     0.554456     0.205631     0.363864    Uiso  ? N
   N6         1.0     0.433719     0.080160     0.091628    Uiso  ? N
   N7         1.0     0.231900     0.195717     0.838602    Uiso  ? N
   N8         1.0     0.096358     0.114514     0.631181    Uiso  ? N
   N9         1.0     0.888592     0.204254     0.387811    Uiso  ? N
   N10        1.0     0.796969     0.086798     0.147620    Uiso  ? N
   N11        1.0     0.558878     0.203995     0.896084    Uiso  ? N
   N12        1.0     0.442742     0.092593     0.586421    Uiso  ? N
   N13        1.0     0.222346     0.537314     0.338543    Uiso  ? N
   N14        1.0     0.111896     0.428049     0.102070    Uiso  ? N
   N15        1.0     0.882949     0.530009     0.830866    Uiso  ? N
   N16        1.0     0.773237     0.434432     0.585057    Uiso  ? N
   N17        1.0     0.555093     0.540598     0.336890    Uiso  ? N
   N18        1.0     0.432590     0.453830     0.090562    Uiso  ? N
   N19        1.0     0.230009     0.547997     0.833771    Uiso  ? N
   N20        1.0     0.112382     0.426808     0.589661    Uiso  ? N
   N21        1.0     0.889423     0.537603     0.342800    Uiso  ? N
   N22        1.0     0.776158     0.432551     0.092195    Uiso  ? N
   N23        1.0     0.557868     0.536809     0.837016    Uiso  ? N
   N24        1.0     0.442555     0.432477     0.584326    Uiso  ? N
   N25        1.0     0.223232     0.870787     0.362623    Uiso  ? N
   N26        1.0     0.103594     0.751837     0.088297    Uiso  ? N
   N27        1.0     0.898682     0.881014     0.843292    Uiso  ? N
   N28        1.0     0.770678     0.752399     0.589894    Uiso  ? N
   N29        1.0     0.555409     0.870671     0.341494    Uiso  ? N
   N30        1.0     0.463897     0.751996     0.084761    Uiso  ? N
   N31        1.0     0.226044     0.869253     0.850512    Uiso  ? N
   N32        1.0     0.117361     0.741634     0.580926    Uiso  ? N
   N33        1.0     0.891223     0.864209     0.348358    Uiso  ? N
   N34        1.0     0.777859     0.760901     0.102037    Uiso  ? N
   N35        1.0     0.541628     0.879286     0.832406    Uiso  ? N
   N36        1.0     0.462818     0.749627     0.586147    Uiso  ? N
