
#======================================================================
# CRYSTAL DATA
#----------------------------------------------------------------------
data_VESTA_phase_1

_chemical_name_common                  'Al   Hf   Mg   N                      '
_cell_length_a                         9.628951
_cell_length_b                         9.649333
_cell_length_c                         10.128322
_cell_angle_alpha                      90.037117
_cell_angle_beta                       89.938789
_cell_angle_gamma                      60.010235
_cell_volume                           815.058009
_space_group_name_H-M_alt              'P 1'
_space_group_IT_number                 1

loop_
_space_group_symop_operation_xyz
   'x, y, z'

loop_
   _atom_site_label
   _atom_site_occupancy
   _atom_site_fract_x
   _atom_site_fract_y
   _atom_site_fract_z
   _atom_site_adp_type
   _atom_site_U_iso_or_equiv
   _atom_site_type_symbol
   Al1        1.0     0.108389     0.098453     0.326188    Uiso  ? Al
   Al2        1.0     0.215419     0.205575     0.078800    Uiso  ? Al
   Al3        1.0     0.781357     0.099953     0.821123    Uiso  ? Al
   Al4        1.0     0.881723     0.215577     0.576188    Uiso  ? Al
   Al5        1.0     0.441032     0.089810     0.332432    Uiso  ? Al
   Al6        1.0     0.106845     0.102362     0.830176    Uiso  ? Al
   Al7        1.0     0.217894     0.214524     0.574585    Uiso  ? Al
   Al8        1.0     0.784860     0.091695     0.328554    Uiso  ? Al
   Al9        1.0     0.892379     0.209436     0.077720    Uiso  ? Al
   Al10       1.0     0.435635     0.094952     0.823291    Uiso  ? Al
   Al11       1.0     0.558471     0.200027     0.577355    Uiso  ? Al
   Al12       1.0     0.108433     0.423392     0.329871    Uiso  ? Al
   Al13       1.0     0.220782     0.543761     0.146041    Uiso  ? Al
   Al14       1.0     0.779167     0.424160     0.825675    Uiso  ? Al
   Al15       1.0     0.891329     0.535892     0.570700    Uiso  ? Al
   Al16       1.0     0.441695     0.429406     0.381681    Uiso  ? Al
   Al17       1.0     0.558863     0.542040     0.075850    Uiso  ? Al
   Al18       1.0     0.219483     0.538240     0.639815    Uiso  ? Al
   Al19       1.0     0.775866     0.427194     0.325144    Uiso  ? Al
   Al20       1.0     0.890423     0.532702     0.082887    Uiso  ? Al
   Al21       1.0     0.446360     0.430997     0.839056    Uiso  ? Al
   Al22       1.0     0.565965     0.535386     0.577411    Uiso  ? Al
   Al23       1.0     0.112129     0.755334     0.387635    Uiso  ? Al
   Al24       1.0     0.448549     0.757446     0.325438    Uiso  ? Al
   Al25       1.0     0.551251     0.868781     0.082274    Uiso  ? Al
   Al26       1.0     0.120429     0.755823     0.894262    Uiso  ? Al
   Al27       1.0     0.778517     0.760578     0.320859    Uiso  ? Al
   Al28       1.0     0.893266     0.871764     0.086723    Uiso  ? Al
   Al29       1.0     0.446267     0.757666     0.828519    Uiso  ? Al
   Al30       1.0     0.560222     0.868187     0.571938    Uiso  ? Al
   Hf1        1.0     0.553668     0.205076     0.084400    Uiso  ? Hf
   Hf2        1.0     0.778697     0.759667     0.834929    Uiso  ? Hf
   Hf3        1.0     0.221981     0.875229     0.602176    Uiso  ? Hf
   Mg1        1.0     0.113130     0.419460     0.833065    Uiso  ? Mg
   Mg2        1.0     0.225511     0.876474     0.093469    Uiso  ? Mg
   Mg3        1.0     0.875847     0.878774     0.572335    Uiso  ? Mg
   N1         1.0     0.222268     0.204135     0.386640    Uiso  ? N
   N2         1.0     0.100788     0.110989     0.140725    Uiso  ? N
   N3         1.0     0.886711     0.208239     0.887394    Uiso  ? N
   N4         1.0     0.771254     0.110958     0.635715    Uiso  ? N
   N5         1.0     0.557808     0.199245     0.379432    Uiso  ? N
   N6         1.0     0.433914     0.085281     0.143473    Uiso  ? N
   N7         1.0     0.229687     0.189647     0.892704    Uiso  ? N
   N8         1.0     0.095874     0.121852     0.639024    Uiso  ? N
   N9         1.0     0.887385     0.207798     0.387185    Uiso  ? N
   N10        1.0     0.793450     0.091311     0.138669    Uiso  ? N
   N11        1.0     0.554095     0.204087     0.874236    Uiso  ? N
   N12        1.0     0.443775     0.090737     0.632296    Uiso  ? N
   N13        1.0     0.223629     0.538529     0.337668    Uiso  ? N
   N14        1.0     0.110319     0.423820     0.136358    Uiso  ? N
   N15        1.0     0.882121     0.528177     0.896824    Uiso  ? N
   N16        1.0     0.779702     0.429633     0.635776    Uiso  ? N
   N17        1.0     0.558365     0.539913     0.388137    Uiso  ? N
   N18        1.0     0.440005     0.441746     0.112328    Uiso  ? N
   N19        1.0     0.227810     0.549588     0.827546    Uiso  ? N
   N20        1.0     0.107756     0.428301     0.620668    Uiso  ? N
   N21        1.0     0.885534     0.539697     0.379325    Uiso  ? N
   N22        1.0     0.775598     0.426576     0.137068    Uiso  ? N
   N23        1.0     0.559178     0.538753     0.882294    Uiso  ? N
   N24        1.0     0.446828     0.425356     0.603927    Uiso  ? N
   N25        1.0     0.225888     0.876214     0.380822    Uiso  ? N
   N26        1.0     0.113038     0.748669     0.083001    Uiso  ? N
   N27        1.0     0.889669     0.888487     0.887632    Uiso  ? N
   N28        1.0     0.772094     0.751629     0.631788    Uiso  ? N
   N29        1.0     0.557977     0.869569     0.383954    Uiso  ? N
   N30        1.0     0.461187     0.750524     0.139680    Uiso  ? N
   N31        1.0     0.220354     0.874332     0.845078    Uiso  ? N
   N32        1.0     0.115231     0.743454     0.577171    Uiso  ? N
   N33        1.0     0.887482     0.871622     0.363248    Uiso  ? N
   N34        1.0     0.776413     0.762260     0.126667    Uiso  ? N
   N35        1.0     0.538707     0.880340     0.891659    Uiso  ? N
   N36        1.0     0.467269     0.748826     0.638726    Uiso  ? N
