
#======================================================================
# CRYSTAL DATA
#----------------------------------------------------------------------
data_VESTA_phase_1

_chemical_name_common                  'Al   Hf   Mg   N                      '
_cell_length_a                         9.590413
_cell_length_b                         9.632778
_cell_length_c                         10.272470
_cell_angle_alpha                      90.169037
_cell_angle_beta                       90.087273
_cell_angle_gamma                      60.044689
_cell_volume                           822.219761
_space_group_name_H-M_alt              'P 1'
_space_group_IT_number                 1

loop_
_space_group_symop_operation_xyz
   'x, y, z'

loop_
   _atom_site_label
   _atom_site_occupancy
   _atom_site_fract_x
   _atom_site_fract_y
   _atom_site_fract_z
   _atom_site_adp_type
   _atom_site_U_iso_or_equiv
   _atom_site_type_symbol
   Al1        1.0     0.106962     0.101944     0.329605    Uiso  ? Al
   Al2        1.0     0.214922     0.202646     0.078336    Uiso  ? Al
   Al3        1.0     0.777350     0.102721     0.822890    Uiso  ? Al
   Al4        1.0     0.881969     0.215560     0.577145    Uiso  ? Al
   Al5        1.0     0.441188     0.090490     0.330597    Uiso  ? Al
   Al6        1.0     0.107736     0.102744     0.830793    Uiso  ? Al
   Al7        1.0     0.218518     0.215136     0.574781    Uiso  ? Al
   Al8        1.0     0.786084     0.090252     0.328663    Uiso  ? Al
   Al9        1.0     0.894754     0.207312     0.078014    Uiso  ? Al
   Al10       1.0     0.436779     0.097109     0.823299    Uiso  ? Al
   Al11       1.0     0.558111     0.202716     0.574453    Uiso  ? Al
   Al12       1.0     0.110222     0.423329     0.327569    Uiso  ? Al
   Al13       1.0     0.217918     0.543947     0.143645    Uiso  ? Al
   Al14       1.0     0.783250     0.421663     0.826723    Uiso  ? Al
   Al15       1.0     0.892323     0.535306     0.570650    Uiso  ? Al
   Al16       1.0     0.440570     0.433997     0.393611    Uiso  ? Al
   Al17       1.0     0.552427     0.543727     0.145394    Uiso  ? Al
   Al18       1.0     0.225226     0.535623     0.643689    Uiso  ? Al
   Al19       1.0     0.783147     0.423136     0.326462    Uiso  ? Al
   Al20       1.0     0.889225     0.532235     0.081706    Uiso  ? Al
   Al21       1.0     0.437410     0.441405     0.888988    Uiso  ? Al
   Al22       1.0     0.557781     0.533795     0.643132    Uiso  ? Al
   Al23       1.0     0.113764     0.753569     0.390576    Uiso  ? Al
   Al24       1.0     0.449584     0.753869     0.390810    Uiso  ? Al
   Al25       1.0     0.554108     0.869789     0.080379    Uiso  ? Al
   Al26       1.0     0.120296     0.759363     0.897730    Uiso  ? Al
   Al27       1.0     0.780176     0.760630     0.320891    Uiso  ? Al
   Al28       1.0     0.892129     0.871225     0.084340    Uiso  ? Al
   Al29       1.0     0.439425     0.756543     0.898342    Uiso  ? Al
   Al30       1.0     0.563704     0.872625     0.569805    Uiso  ? Al
   Hf1        1.0     0.555292     0.201705     0.088307    Uiso  ? Hf
   Hf2        1.0     0.779039     0.759305     0.831387    Uiso  ? Hf
   Hf3        1.0     0.224182     0.870136     0.622184    Uiso  ? Hf
   Mg1        1.0     0.112961     0.419904     0.832800    Uiso  ? Mg
   Mg2        1.0     0.224228     0.867184     0.146804    Uiso  ? Mg
   Mg3        1.0     0.877298     0.879568     0.572332    Uiso  ? Mg
   N1         1.0     0.223044     0.205403     0.388536    Uiso  ? N
   N2         1.0     0.100867     0.110694     0.145103    Uiso  ? N
   N3         1.0     0.888016     0.206940     0.889538    Uiso  ? N
   N4         1.0     0.769293     0.112870     0.638727    Uiso  ? N
   N5         1.0     0.558101     0.200671     0.374412    Uiso  ? N
   N6         1.0     0.433710     0.083725     0.144141    Uiso  ? N
   N7         1.0     0.229971     0.189598     0.894154    Uiso  ? N
   N8         1.0     0.098044     0.120333     0.639081    Uiso  ? N
   N9         1.0     0.886910     0.207517     0.390540    Uiso  ? N
   N10        1.0     0.795078     0.089443     0.140420    Uiso  ? N
   N11        1.0     0.553582     0.204501     0.882023    Uiso  ? N
   N12        1.0     0.444797     0.093132     0.633047    Uiso  ? N
   N13        1.0     0.226677     0.538125     0.330735    Uiso  ? N
   N14        1.0     0.110257     0.422038     0.136139    Uiso  ? N
   N15        1.0     0.880786     0.529436     0.898725    Uiso  ? N
   N16        1.0     0.784566     0.427584     0.636254    Uiso  ? N
   N17        1.0     0.551192     0.539233     0.333622    Uiso  ? N
   N18        1.0     0.434215     0.447574     0.081423    Uiso  ? N
   N19        1.0     0.228292     0.551268     0.828955    Uiso  ? N
   N20        1.0     0.109377     0.428454     0.623637    Uiso  ? N
   N21        1.0     0.887375     0.539507     0.381321    Uiso  ? N
   N22        1.0     0.781003     0.422634     0.138756    Uiso  ? N
   N23        1.0     0.552332     0.541121     0.831772    Uiso  ? N
   N24        1.0     0.444270     0.429995     0.581104    Uiso  ? N
   N25        1.0     0.222465     0.875234     0.365839    Uiso  ? N
   N26        1.0     0.112369     0.749578     0.082315    Uiso  ? N
   N27        1.0     0.888511     0.889644     0.888941    Uiso  ? N
   N28        1.0     0.772928     0.751837     0.631375    Uiso  ? N
   N29        1.0     0.561045     0.872840     0.381359    Uiso  ? N
   N30        1.0     0.454807     0.748876     0.083047    Uiso  ? N
   N31        1.0     0.223624     0.871163     0.834088    Uiso  ? N
   N32        1.0     0.118476     0.740695     0.575802    Uiso  ? N
   N33        1.0     0.888373     0.871396     0.366397    Uiso  ? N
   N34        1.0     0.776765     0.760974     0.129848    Uiso  ? N
   N35        1.0     0.542061     0.884605     0.888650    Uiso  ? N
   N36        1.0     0.466555     0.744326     0.579671    Uiso  ? N
