
#======================================================================
# CRYSTAL DATA
#----------------------------------------------------------------------
data_VESTA_phase_1

_chemical_name_common                  'Al   Hf   Mg   N                      '
_cell_length_a                         9.580504
_cell_length_b                         9.599037
_cell_length_c                         10.120131
_cell_angle_alpha                      90.039894
_cell_angle_beta                       89.957748
_cell_angle_gamma                      60.000378
_cell_volume                           805.998145
_space_group_name_H-M_alt              'P 1'
_space_group_IT_number                 1

loop_
_space_group_symop_operation_xyz
   'x, y, z'

loop_
   _atom_site_label
   _atom_site_occupancy
   _atom_site_fract_x
   _atom_site_fract_y
   _atom_site_fract_z
   _atom_site_adp_type
   _atom_site_U_iso_or_equiv
   _atom_site_type_symbol
   Al1        1.0     0.107573     0.100165     0.402008    Uiso  ? Al
   Al2        1.0     0.214774     0.208192     0.156803    Uiso  ? Al
   Al3        1.0     0.785630     0.094493     0.901140    Uiso  ? Al
   Al4        1.0     0.881372     0.214502     0.654573    Uiso  ? Al
   Al5        1.0     0.442137     0.093453     0.408864    Uiso  ? Al
   Al6        1.0     0.110015     0.098634     0.908696    Uiso  ? Al
   Al7        1.0     0.219868     0.210852     0.654727    Uiso  ? Al
   Al8        1.0     0.779396     0.096829     0.409638    Uiso  ? Al
   Al9        1.0     0.893674     0.208035     0.154721    Uiso  ? Al
   Al10       1.0     0.435344     0.093614     0.898665    Uiso  ? Al
   Al11       1.0     0.555830     0.206576     0.656310    Uiso  ? Al
   Al12       1.0     0.112712     0.427291     0.403692    Uiso  ? Al
   Al13       1.0     0.215960     0.542526     0.157058    Uiso  ? Al
   Al14       1.0     0.777553     0.423938     0.905376    Uiso  ? Al
   Al15       1.0     0.888700     0.534255     0.648751    Uiso  ? Al
   Al16       1.0     0.442705     0.431038     0.409825    Uiso  ? Al
   Al17       1.0     0.557638     0.542894     0.154687    Uiso  ? Al
   Al18       1.0     0.222626     0.534957     0.656060    Uiso  ? Al
   Al19       1.0     0.776868     0.427245     0.404935    Uiso  ? Al
   Al20       1.0     0.892924     0.533728     0.161399    Uiso  ? Al
   Al21       1.0     0.440353     0.435849     0.899035    Uiso  ? Al
   Al22       1.0     0.561530     0.532902     0.655271    Uiso  ? Al
   Al23       1.0     0.112642     0.757251     0.402539    Uiso  ? Al
   Al24       1.0     0.447949     0.757933     0.402816    Uiso  ? Al
   Al25       1.0     0.553839     0.867312     0.160041    Uiso  ? Al
   Al26       1.0     0.115568     0.758258     0.911919    Uiso  ? Al
   Al27       1.0     0.777417     0.759588     0.408114    Uiso  ? Al
   Al28       1.0     0.895676     0.867927     0.160521    Uiso  ? Al
   Al29       1.0     0.444042     0.757955     0.909159    Uiso  ? Al
   Al30       1.0     0.557359     0.870748     0.649420    Uiso  ? Al
   Hf1        1.0     0.553645     0.206630     0.145674    Uiso  ? Hf
   Hf2        1.0     0.779288     0.759382     0.900890    Uiso  ? Hf
   Hf3        1.0     0.220496     0.873619     0.646017    Uiso  ? Hf
   Mg1        1.0     0.116955     0.422228     0.905137    Uiso  ? Mg
   Mg2        1.0     0.222519     0.873545     0.156230    Uiso  ? Mg
   Mg3        1.0     0.886058     0.874439     0.646730    Uiso  ? Mg
   N1         1.0     0.224246     0.204456     0.347573    Uiso  ? N
   N2         1.0     0.103863     0.109295     0.094644    Uiso  ? N
   N3         1.0     0.889091     0.206754     0.844801    Uiso  ? N
   N4         1.0     0.769414     0.111964     0.595085    Uiso  ? N
   N5         1.0     0.553916     0.206118     0.352174    Uiso  ? N
   N6         1.0     0.435814     0.083752     0.091172    Uiso  ? N
   N7         1.0     0.226302     0.191423     0.838802    Uiso  ? N
   N8         1.0     0.097839     0.116228     0.591074    Uiso  ? N
   N9         1.0     0.886923     0.207280     0.343941    Uiso  ? N
   N10        1.0     0.794594     0.086884     0.093739    Uiso  ? N
   N11        1.0     0.555508     0.204223     0.855150    Uiso  ? N
   N12        1.0     0.444639     0.094290     0.597552    Uiso  ? N
   N13        1.0     0.225573     0.536507     0.346803    Uiso  ? N
   N14        1.0     0.112276     0.427056     0.110769    Uiso  ? N
   N15        1.0     0.883556     0.527789     0.837131    Uiso  ? N
   N16        1.0     0.776109     0.427810     0.592981    Uiso  ? N
   N17        1.0     0.555553     0.537198     0.345382    Uiso  ? N
   N18        1.0     0.436057     0.445917     0.090957    Uiso  ? N
   N19        1.0     0.227573     0.547649     0.841707    Uiso  ? N
   N20        1.0     0.112093     0.427307     0.594754    Uiso  ? N
   N21        1.0     0.888181     0.537976     0.350475    Uiso  ? N
   N22        1.0     0.777729     0.427845     0.096944    Uiso  ? N
   N23        1.0     0.557498     0.538113     0.845007    Uiso  ? N
   N24        1.0     0.445224     0.426571     0.599147    Uiso  ? N
   N25        1.0     0.222436     0.874334     0.369122    Uiso  ? N
   N26        1.0     0.105148     0.753571     0.098581    Uiso  ? N
   N27        1.0     0.899292     0.878611     0.851383    Uiso  ? N
   N28        1.0     0.771812     0.752724     0.596469    Uiso  ? N
   N29        1.0     0.554698     0.873537     0.348754    Uiso  ? N
   N30        1.0     0.460567     0.753207     0.094453    Uiso  ? N
   N31        1.0     0.222178     0.872601     0.856443    Uiso  ? N
   N32        1.0     0.118166     0.743312     0.587668    Uiso  ? N
   N33        1.0     0.887177     0.874281     0.351015    Uiso  ? N
   N34        1.0     0.777745     0.761193     0.109280    Uiso  ? N
   N35        1.0     0.540742     0.877046     0.839052    Uiso  ? N
   N36        1.0     0.461486     0.749341     0.592484    Uiso  ? N
