
#======================================================================
# CRYSTAL DATA
#----------------------------------------------------------------------
data_VESTA_phase_1

_chemical_name_common                  'Al   Hf   Mg   N                      '
_cell_length_a                         9.580490
_cell_length_b                         9.599011
_cell_length_c                         10.120164
_cell_angle_alpha                      90.039795
_cell_angle_beta                       89.958267
_cell_angle_gamma                      60.000629
_cell_volume                           805.999419
_space_group_name_H-M_alt              'P 1'
_space_group_IT_number                 1

loop_
_space_group_symop_operation_xyz
   'x, y, z'

loop_
   _atom_site_label
   _atom_site_occupancy
   _atom_site_fract_x
   _atom_site_fract_y
   _atom_site_fract_z
   _atom_site_adp_type
   _atom_site_U_iso_or_equiv
   _atom_site_type_symbol
   Al1        1.0     0.107573     0.100155     0.407024    Uiso  ? Al
   Al2        1.0     0.214774     0.208182     0.161812    Uiso  ? Al
   Al3        1.0     0.785629     0.094482     0.906156    Uiso  ? Al
   Al4        1.0     0.881373     0.214491     0.659588    Uiso  ? Al
   Al5        1.0     0.442135     0.093444     0.413875    Uiso  ? Al
   Al6        1.0     0.110015     0.098623     0.913707    Uiso  ? Al
   Al7        1.0     0.219869     0.210842     0.659743    Uiso  ? Al
   Al8        1.0     0.779397     0.096819     0.414651    Uiso  ? Al
   Al9        1.0     0.893675     0.208025     0.159736    Uiso  ? Al
   Al10       1.0     0.435348     0.093602     0.903673    Uiso  ? Al
   Al11       1.0     0.555831     0.206565     0.661320    Uiso  ? Al
   Al12       1.0     0.112714     0.427280     0.408707    Uiso  ? Al
   Al13       1.0     0.215960     0.542516     0.162069    Uiso  ? Al
   Al14       1.0     0.777555     0.423927     0.910389    Uiso  ? Al
   Al15       1.0     0.888701     0.534246     0.653760    Uiso  ? Al
   Al16       1.0     0.442705     0.431029     0.414839    Uiso  ? Al
   Al17       1.0     0.557638     0.542885     0.159700    Uiso  ? Al
   Al18       1.0     0.222626     0.534947     0.661074    Uiso  ? Al
   Al19       1.0     0.776868     0.427234     0.409950    Uiso  ? Al
   Al20       1.0     0.892925     0.533717     0.166417    Uiso  ? Al
   Al21       1.0     0.440355     0.435838     0.904044    Uiso  ? Al
   Al22       1.0     0.561531     0.532891     0.660285    Uiso  ? Al
   Al23       1.0     0.112642     0.757241     0.407553    Uiso  ? Al
   Al24       1.0     0.447950     0.757922     0.407833    Uiso  ? Al
   Al25       1.0     0.553839     0.867303     0.165055    Uiso  ? Al
   Al26       1.0     0.115569     0.758249     0.916935    Uiso  ? Al
   Al27       1.0     0.777418     0.759579     0.413123    Uiso  ? Al
   Al28       1.0     0.895676     0.867918     0.165538    Uiso  ? Al
   Al29       1.0     0.444043     0.757945     0.914169    Uiso  ? Al
   Al30       1.0     0.557362     0.870737     0.654429    Uiso  ? Al
   Hf1        1.0     0.553645     0.206620     0.150687    Uiso  ? Hf
   Hf2        1.0     0.779288     0.759372     0.905906    Uiso  ? Hf
   Hf3        1.0     0.220498     0.873608     0.651030    Uiso  ? Hf
   Mg1        1.0     0.116954     0.422218     0.910149    Uiso  ? Mg
   Mg2        1.0     0.222520     0.873535     0.161245    Uiso  ? Mg
   Mg3        1.0     0.886059     0.874428     0.651745    Uiso  ? Mg
   N1         1.0     0.224245     0.204447     0.352583    Uiso  ? N
   N2         1.0     0.103862     0.109285     0.099655    Uiso  ? N
   N3         1.0     0.889091     0.206744     0.849815    Uiso  ? N
   N4         1.0     0.769415     0.111952     0.600097    Uiso  ? N
   N5         1.0     0.553915     0.206109     0.357187    Uiso  ? N
   N6         1.0     0.435815     0.083743     0.096183    Uiso  ? N
   N7         1.0     0.226302     0.191413     0.843816    Uiso  ? N
   N8         1.0     0.097839     0.116218     0.596089    Uiso  ? N
   N9         1.0     0.886923     0.207270     0.348955    Uiso  ? N
   N10        1.0     0.794593     0.086875     0.098754    Uiso  ? N
   N11        1.0     0.555510     0.204212     0.860160    Uiso  ? N
   N12        1.0     0.444638     0.094280     0.602563    Uiso  ? N
   N13        1.0     0.225573     0.536497     0.351815    Uiso  ? N
   N14        1.0     0.112274     0.427048     0.115781    Uiso  ? N
   N15        1.0     0.883557     0.527778     0.842140    Uiso  ? N
   N16        1.0     0.776110     0.427799     0.597995    Uiso  ? N
   N17        1.0     0.555554     0.537189     0.350395    Uiso  ? N
   N18        1.0     0.436056     0.445908     0.095967    Uiso  ? N
   N19        1.0     0.227573     0.547639     0.846720    Uiso  ? N
   N20        1.0     0.112095     0.427295     0.599769    Uiso  ? N
   N21        1.0     0.888182     0.537965     0.355491    Uiso  ? N
   N22        1.0     0.777728     0.427836     0.101957    Uiso  ? N
   N23        1.0     0.557500     0.538103     0.850019    Uiso  ? N
   N24        1.0     0.445224     0.426561     0.604161    Uiso  ? N
   N25        1.0     0.222436     0.874325     0.374138    Uiso  ? N
   N26        1.0     0.105148     0.753562     0.103597    Uiso  ? N
   N27        1.0     0.899292     0.878600     0.856398    Uiso  ? N
   N28        1.0     0.771814     0.752714     0.601478    Uiso  ? N
   N29        1.0     0.554697     0.873527     0.353767    Uiso  ? N
   N30        1.0     0.460567     0.753197     0.099464    Uiso  ? N
   N31        1.0     0.222178     0.872590     0.861454    Uiso  ? N
   N32        1.0     0.118166     0.743302     0.592682    Uiso  ? N
   N33        1.0     0.887178     0.874271     0.356029    Uiso  ? N
   N34        1.0     0.777745     0.761183     0.114297    Uiso  ? N
   N35        1.0     0.540745     0.877034     0.844061    Uiso  ? N
   N36        1.0     0.461488     0.749329     0.597498    Uiso  ? N
