
#======================================================================
# CRYSTAL DATA
#----------------------------------------------------------------------
data_VESTA_phase_1

_chemical_name_common                  'Al   Hf   Mg   N                      '
_cell_length_a                         9.594791
_cell_length_b                         9.639645
_cell_length_c                         10.261570
_cell_angle_alpha                      90.289841
_cell_angle_beta                       90.139107
_cell_angle_gamma                      60.004921
_cell_volume                           821.971912
_space_group_name_H-M_alt              'P 1'
_space_group_IT_number                 1

loop_
_space_group_symop_operation_xyz
   'x, y, z'

loop_
   _atom_site_label
   _atom_site_occupancy
   _atom_site_fract_x
   _atom_site_fract_y
   _atom_site_fract_z
   _atom_site_adp_type
   _atom_site_U_iso_or_equiv
   _atom_site_type_symbol
   Al1        1.0     0.107661     0.101414     0.330436    Uiso  ? Al
   Al2        1.0     0.215716     0.202359     0.079861    Uiso  ? Al
   Al3        1.0     0.779130     0.101566     0.821999    Uiso  ? Al
   Al4        1.0     0.882410     0.216271     0.578466    Uiso  ? Al
   Al5        1.0     0.441634     0.090808     0.332243    Uiso  ? Al
   Al6        1.0     0.107566     0.103484     0.833192    Uiso  ? Al
   Al7        1.0     0.218391     0.215009     0.576442    Uiso  ? Al
   Al8        1.0     0.783502     0.094479     0.331729    Uiso  ? Al
   Al9        1.0     0.895099     0.206839     0.078894    Uiso  ? Al
   Al10       1.0     0.436682     0.097177     0.824160    Uiso  ? Al
   Al11       1.0     0.556858     0.203841     0.576983    Uiso  ? Al
   Al12       1.0     0.110780     0.422716     0.329242    Uiso  ? Al
   Al13       1.0     0.219942     0.541436     0.144825    Uiso  ? Al
   Al14       1.0     0.783111     0.422715     0.828611    Uiso  ? Al
   Al15       1.0     0.892186     0.535205     0.573043    Uiso  ? Al
   Al16       1.0     0.440922     0.433616     0.395850    Uiso  ? Al
   Al17       1.0     0.553018     0.542660     0.146633    Uiso  ? Al
   Al18       1.0     0.223541     0.537199     0.645358    Uiso  ? Al
   Al19       1.0     0.783451     0.422731     0.327888    Uiso  ? Al
   Al20       1.0     0.889514     0.531335     0.083068    Uiso  ? Al
   Al21       1.0     0.436713     0.442719     0.889027    Uiso  ? Al
   Al22       1.0     0.557442     0.534412     0.644933    Uiso  ? Al
   Al23       1.0     0.115935     0.752506     0.389793    Uiso  ? Al
   Al24       1.0     0.448477     0.753982     0.392756    Uiso  ? Al
   Al25       1.0     0.554584     0.869172     0.082058    Uiso  ? Al
   Al26       1.0     0.115096     0.762623     0.901739    Uiso  ? Al
   Al27       1.0     0.777596     0.757478     0.324624    Uiso  ? Al
   Al28       1.0     0.895362     0.867199     0.114227    Uiso  ? Al
   Al29       1.0     0.439493     0.757030     0.899884    Uiso  ? Al
   Al30       1.0     0.562139     0.873146     0.572298    Uiso  ? Al
   Hf1        1.0     0.557240     0.199476     0.085124    Uiso  ? Hf
   Hf2        1.0     0.779944     0.760614     0.833179    Uiso  ? Hf
   Hf3        1.0     0.222663     0.869663     0.626190    Uiso  ? Hf
   Mg1        1.0     0.113260     0.420798     0.835013    Uiso  ? Mg
   Mg2        1.0     0.225759     0.866924     0.147194    Uiso  ? Mg
   Mg3        1.0     0.877049     0.879535     0.573464    Uiso  ? Mg
   N1         1.0     0.223256     0.205057     0.389901    Uiso  ? N
   N2         1.0     0.101527     0.110260     0.145658    Uiso  ? N
   N3         1.0     0.887469     0.207866     0.890441    Uiso  ? N
   N4         1.0     0.769496     0.113597     0.637062    Uiso  ? N
   N5         1.0     0.557938     0.200385     0.378570    Uiso  ? N
   N6         1.0     0.435090     0.083693     0.145636    Uiso  ? N
   N7         1.0     0.230243     0.190311     0.895650    Uiso  ? N
   N8         1.0     0.098496     0.119770     0.640763    Uiso  ? N
   N9         1.0     0.887877     0.207759     0.392074    Uiso  ? N
   N10        1.0     0.794149     0.091930     0.143753    Uiso  ? N
   N11        1.0     0.553628     0.205602     0.879604    Uiso  ? N
   N12        1.0     0.444154     0.093489     0.634549    Uiso  ? N
   N13        1.0     0.228037     0.536439     0.331914    Uiso  ? N
   N14        1.0     0.110477     0.421535     0.137758    Uiso  ? N
   N15        1.0     0.881195     0.530041     0.900320    Uiso  ? N
   N16        1.0     0.784249     0.428107     0.637945    Uiso  ? N
   N17        1.0     0.551413     0.538810     0.335406    Uiso  ? N
   N18        1.0     0.435641     0.445491     0.082093    Uiso  ? N
   N19        1.0     0.226740     0.554038     0.831000    Uiso  ? N
   N20        1.0     0.109305     0.428491     0.625530    Uiso  ? N
   N21        1.0     0.887950     0.538114     0.383842    Uiso  ? N
   N22        1.0     0.781535     0.421954     0.140220    Uiso  ? N
   N23        1.0     0.552236     0.541945     0.833374    Uiso  ? N
   N24        1.0     0.443087     0.431328     0.583567    Uiso  ? N
   N25        1.0     0.222618     0.874947     0.365439    Uiso  ? N
   N26        1.0     0.112233     0.748910     0.086674    Uiso  ? N
   N27        1.0     0.889326     0.889972     0.884025    Uiso  ? N
   N28        1.0     0.772274     0.752514     0.631530    Uiso  ? N
   N29        1.0     0.559776     0.873147     0.383927    Uiso  ? N
   N30        1.0     0.455919     0.747827     0.084540    Uiso  ? N
   N31        1.0     0.222693     0.871835     0.837696    Uiso  ? N
   N32        1.0     0.117025     0.741176     0.574269    Uiso  ? N
   N33        1.0     0.890575     0.869641     0.355901    Uiso  ? N
   N34        1.0     0.775576     0.758236     0.134382    Uiso  ? N
   N35        1.0     0.542121     0.885375     0.890604    Uiso  ? N
   N36        1.0     0.464593     0.745253     0.581892    Uiso  ? N
