
#======================================================================
# CRYSTAL DATA
#----------------------------------------------------------------------
data_VESTA_phase_1

_chemical_name_common                  'Al   Hf   Mg   N                      '
_cell_length_a                         9.601192
_cell_length_b                         9.614649
_cell_length_c                         10.288966
_cell_angle_alpha                      89.982300
_cell_angle_beta                       89.916435
_cell_angle_gamma                      59.986576
_cell_volume                           822.435134
_space_group_name_H-M_alt              'P 1'
_space_group_IT_number                 1

loop_
_space_group_symop_operation_xyz
   'x, y, z'

loop_
   _atom_site_label
   _atom_site_occupancy
   _atom_site_fract_x
   _atom_site_fract_y
   _atom_site_fract_z
   _atom_site_adp_type
   _atom_site_U_iso_or_equiv
   _atom_site_type_symbol
   Al1        1.0     0.107693     0.101886     0.333517    Uiso  ? Al
   Al2        1.0     0.218875     0.199470     0.084487    Uiso  ? Al
   Al3        1.0     0.776387     0.105437     0.825208    Uiso  ? Al
   Al4        1.0     0.883055     0.212283     0.581387    Uiso  ? Al
   Al5        1.0     0.438382     0.094606     0.339267    Uiso  ? Al
   Al6        1.0     0.107449     0.103116     0.837716    Uiso  ? Al
   Al7        1.0     0.220553     0.209427     0.582554    Uiso  ? Al
   Al8        1.0     0.783521     0.094173     0.338930    Uiso  ? Al
   Al9        1.0     0.896845     0.203243     0.085860    Uiso  ? Al
   Al10       1.0     0.434819     0.102577     0.826137    Uiso  ? Al
   Al11       1.0     0.556686     0.204034     0.578322    Uiso  ? Al
   Al12       1.0     0.110195     0.433373     0.398460    Uiso  ? Al
   Al13       1.0     0.216107     0.540328     0.149839    Uiso  ? Al
   Al14       1.0     0.775087     0.428287     0.888557    Uiso  ? Al
   Al15       1.0     0.887780     0.536934     0.642864    Uiso  ? Al
   Al16       1.0     0.439452     0.435919     0.398394    Uiso  ? Al
   Al17       1.0     0.558045     0.542846     0.149269    Uiso  ? Al
   Al18       1.0     0.223765     0.534328     0.650277    Uiso  ? Al
   Al19       1.0     0.774098     0.432577     0.393610    Uiso  ? Al
   Al20       1.0     0.896646     0.528664     0.157788    Uiso  ? Al
   Al21       1.0     0.436954     0.442239     0.895161    Uiso  ? Al
   Al22       1.0     0.560021     0.531474     0.647299    Uiso  ? Al
   Al23       1.0     0.112806     0.755319     0.399111    Uiso  ? Al
   Al24       1.0     0.448737     0.757171     0.400444    Uiso  ? Al
   Al25       1.0     0.558346     0.858504     0.159618    Uiso  ? Al
   Al26       1.0     0.113066     0.762306     0.902534    Uiso  ? Al
   Al27       1.0     0.778135     0.757651     0.404393    Uiso  ? Al
   Al28       1.0     0.900636     0.859110     0.158362    Uiso  ? Al
   Al29       1.0     0.441907     0.762054     0.900876    Uiso  ? Al
   Al30       1.0     0.560550     0.865827     0.644046    Uiso  ? Al
   Hf1        1.0     0.558005     0.200171     0.093912    Uiso  ? Hf
   Hf2        1.0     0.778324     0.761702     0.899840    Uiso  ? Hf
   Hf3        1.0     0.220913     0.871488     0.629745    Uiso  ? Hf
   Mg1        1.0     0.114830     0.428676     0.896272    Uiso  ? Mg
   Mg2        1.0     0.226215     0.865268     0.147161    Uiso  ? Mg
   Mg3        1.0     0.886236     0.871289     0.637952    Uiso  ? Mg
   N1         1.0     0.223832     0.201179     0.396556    Uiso  ? N
   N2         1.0     0.102536     0.110185     0.150722    Uiso  ? N
   N3         1.0     0.890285     0.201398     0.896054    Uiso  ? N
   N4         1.0     0.765043     0.119552     0.641686    Uiso  ? N
   N5         1.0     0.557950     0.200317     0.382813    Uiso  ? N
   N6         1.0     0.433651     0.087918     0.151026    Uiso  ? N
   N7         1.0     0.233937     0.183637     0.899400    Uiso  ? N
   N8         1.0     0.094896     0.123560     0.648345    Uiso  ? N
   N9         1.0     0.891173     0.201400     0.394558    Uiso  ? N
   N10        1.0     0.795334     0.089496     0.150052    Uiso  ? N
   N11        1.0     0.555733     0.201723     0.888448    Uiso  ? N
   N12        1.0     0.440646     0.101317     0.637348    Uiso  ? N
   N13        1.0     0.224443     0.537243     0.336986    Uiso  ? N
   N14        1.0     0.112432     0.426672     0.103528    Uiso  ? N
   N15        1.0     0.883583     0.530799     0.828712    Uiso  ? N
   N16        1.0     0.772224     0.435992     0.587206    Uiso  ? N
   N17        1.0     0.553123     0.539393     0.337329    Uiso  ? N
   N18        1.0     0.434713     0.449235     0.087656    Uiso  ? N
   N19        1.0     0.228130     0.548664     0.833454    Uiso  ? N
   N20        1.0     0.108026     0.435560     0.589259    Uiso  ? N
   N21        1.0     0.890263     0.537306     0.343926    Uiso  ? N
   N22        1.0     0.776795     0.430644     0.099967    Uiso  ? N
   N23        1.0     0.555783     0.538228     0.835538    Uiso  ? N
   N24        1.0     0.440994     0.432981     0.585945    Uiso  ? N
   N25        1.0     0.222253     0.874116     0.371750    Uiso  ? N
   N26        1.0     0.105312     0.752074     0.087691    Uiso  ? N
   N27        1.0     0.895942     0.880262     0.845844    Uiso  ? N
   N28        1.0     0.771003     0.754338     0.587988    Uiso  ? N
   N29        1.0     0.559276     0.863627     0.346312    Uiso  ? N
   N30        1.0     0.461032     0.753523     0.084440    Uiso  ? N
   N31        1.0     0.223791     0.869381     0.841528    Uiso  ? N
   N32        1.0     0.116190     0.741919     0.580986    Uiso  ? N
   N33        1.0     0.892741     0.863557     0.347212    Uiso  ? N
   N34        1.0     0.778313     0.760674     0.105328    Uiso  ? N
   N35        1.0     0.544481     0.873353     0.832390    Uiso  ? N
   N36        1.0     0.462771     0.748969     0.586484    Uiso  ? N
