
#======================================================================
# CRYSTAL DATA
#----------------------------------------------------------------------
data_VESTA_phase_1

_chemical_name_common                  'Al   Hf   Mg   N                      '
_cell_length_a                         9.637243
_cell_length_b                         9.660587
_cell_length_c                         10.151603
_cell_angle_alpha                      89.763763
_cell_angle_beta                       89.655876
_cell_angle_gamma                      60.011467
_cell_volume                           818.584603
_space_group_name_H-M_alt              'P 1'
_space_group_IT_number                 1

loop_
_space_group_symop_operation_xyz
   'x, y, z'

loop_
   _atom_site_label
   _atom_site_occupancy
   _atom_site_fract_x
   _atom_site_fract_y
   _atom_site_fract_z
   _atom_site_adp_type
   _atom_site_U_iso_or_equiv
   _atom_site_type_symbol
   Al1        1.0     0.108479     0.103052     0.332466    Uiso  ? Al
   Al2        1.0     0.211862     0.205982     0.093259    Uiso  ? Al
   Al3        1.0     0.773338     0.106462     0.828562    Uiso  ? Al
   Al4        1.0     0.883281     0.211685     0.580796    Uiso  ? Al
   Al5        1.0     0.438823     0.089006     0.398806    Uiso  ? Al
   Al6        1.0     0.103782     0.100346     0.835853    Uiso  ? Al
   Al7        1.0     0.221323     0.213333     0.626420    Uiso  ? Al
   Al8        1.0     0.787265     0.092567     0.338849    Uiso  ? Al
   Al9        1.0     0.896102     0.199612     0.083154    Uiso  ? Al
   Al10       1.0     0.442223     0.089890     0.895018    Uiso  ? Al
   Al11       1.0     0.558387     0.207400     0.581792    Uiso  ? Al
   Al12       1.0     0.112258     0.427077     0.400395    Uiso  ? Al
   Al13       1.0     0.214165     0.542110     0.149106    Uiso  ? Al
   Al14       1.0     0.773744     0.429937     0.899970    Uiso  ? Al
   Al15       1.0     0.886158     0.536504     0.644426    Uiso  ? Al
   Al16       1.0     0.438823     0.438219     0.394309    Uiso  ? Al
   Al17       1.0     0.558694     0.543751     0.147749    Uiso  ? Al
   Al18       1.0     0.225252     0.535370     0.650268    Uiso  ? Al
   Al19       1.0     0.774432     0.433849     0.397251    Uiso  ? Al
   Al20       1.0     0.894705     0.529962     0.155306    Uiso  ? Al
   Al21       1.0     0.439850     0.438140     0.898342    Uiso  ? Al
   Al22       1.0     0.562547     0.531052     0.649079    Uiso  ? Al
   Al23       1.0     0.112651     0.754233     0.397240    Uiso  ? Al
   Al24       1.0     0.450562     0.757037     0.397308    Uiso  ? Al
   Al25       1.0     0.554523     0.863897     0.154620    Uiso  ? Al
   Al26       1.0     0.114318     0.762378     0.900898    Uiso  ? Al
   Al27       1.0     0.778117     0.756903     0.402499    Uiso  ? Al
   Al28       1.0     0.899336     0.858931     0.155871    Uiso  ? Al
   Al29       1.0     0.442488     0.759411     0.899071    Uiso  ? Al
   Al30       1.0     0.559553     0.869287     0.644212    Uiso  ? Al
   Hf1        1.0     0.553245     0.205841     0.117797    Uiso  ? Hf
   Hf2        1.0     0.779030     0.762221     0.896368    Uiso  ? Hf
   Hf3        1.0     0.222705     0.870568     0.624266    Uiso  ? Hf
   Mg1        1.0     0.113009     0.432927     0.890820    Uiso  ? Mg
   Mg2        1.0     0.226872     0.863866     0.145000    Uiso  ? Mg
   Mg3        1.0     0.886377     0.871768     0.635576    Uiso  ? Mg
   N1         1.0     0.220550     0.206062     0.377774    Uiso  ? N
   N2         1.0     0.101670     0.107130     0.144606    Uiso  ? N
   N3         1.0     0.888920     0.201785     0.893902    Uiso  ? N
   N4         1.0     0.765044     0.118994     0.640209    Uiso  ? N
   N5         1.0     0.556013     0.204590     0.365011    Uiso  ? N
   N6         1.0     0.437274     0.076397     0.091285    Uiso  ? N
   N7         1.0     0.226685     0.195169     0.864375    Uiso  ? N
   N8         1.0     0.092691     0.119210     0.644364    Uiso  ? N
   N9         1.0     0.890631     0.202833     0.391647    Uiso  ? N
   N10        1.0     0.796701     0.086778     0.147794    Uiso  ? N
   N11        1.0     0.558261     0.204415     0.896481    Uiso  ? N
   N12        1.0     0.448194     0.090506     0.592663    Uiso  ? N
   N13        1.0     0.222524     0.537328     0.338041    Uiso  ? N
   N14        1.0     0.111254     0.428122     0.099174    Uiso  ? N
   N15        1.0     0.879751     0.531587     0.831267    Uiso  ? N
   N16        1.0     0.773324     0.434940     0.586292    Uiso  ? N
   N17        1.0     0.556055     0.539797     0.336756    Uiso  ? N
   N18        1.0     0.433011     0.452211     0.091620    Uiso  ? N
   N19        1.0     0.231241     0.549475     0.834616    Uiso  ? N
   N20        1.0     0.109375     0.433901     0.594354    Uiso  ? N
   N21        1.0     0.889933     0.537111     0.343445    Uiso  ? N
   N22        1.0     0.776798     0.430724     0.092592    Uiso  ? N
   N23        1.0     0.557341     0.536874     0.838217    Uiso  ? N
   N24        1.0     0.443137     0.432218     0.584595    Uiso  ? N
   N25        1.0     0.222986     0.873772     0.371690    Uiso  ? N
   N26        1.0     0.104661     0.752400     0.088264    Uiso  ? N
   N27        1.0     0.897310     0.880696     0.845400    Uiso  ? N
   N28        1.0     0.771417     0.752921     0.589409    Uiso  ? N
   N29        1.0     0.556335     0.870382     0.342242    Uiso  ? N
   N30        1.0     0.461624     0.752335     0.084749    Uiso  ? N
   N31        1.0     0.225109     0.869333     0.841223    Uiso  ? N
   N32        1.0     0.116965     0.741299     0.581197    Uiso  ? N
   N33        1.0     0.892174     0.863846     0.348059    Uiso  ? N
   N34        1.0     0.778318     0.759312     0.104132    Uiso  ? N
   N35        1.0     0.542242     0.877545     0.832554    Uiso  ? N
   N36        1.0     0.465988     0.747433     0.586338    Uiso  ? N
