
#======================================================================
# CRYSTAL DATA
#----------------------------------------------------------------------
data_VESTA_phase_1

_chemical_name_common                  'Al   Hf   Mg   N                      '
_cell_length_a                         9.638767
_cell_length_b                         9.622115
_cell_length_c                         10.295853
_cell_angle_alpha                      89.923264
_cell_angle_beta                       89.884720
_cell_angle_gamma                      59.898205
_cell_volume                           826.109635
_space_group_name_H-M_alt              'P 1'
_space_group_IT_number                 1

loop_
_space_group_symop_operation_xyz
   'x, y, z'

loop_
   _atom_site_label
   _atom_site_occupancy
   _atom_site_fract_x
   _atom_site_fract_y
   _atom_site_fract_z
   _atom_site_adp_type
   _atom_site_U_iso_or_equiv
   _atom_site_type_symbol
   Al1        1.0     0.107798     0.100131     0.334552    Uiso  ? Al
   Al2        1.0     0.218494     0.199693     0.086250    Uiso  ? Al
   Al3        1.0     0.776633     0.105602     0.824542    Uiso  ? Al
   Al4        1.0     0.880888     0.216782     0.581434    Uiso  ? Al
   Al5        1.0     0.440408     0.092603     0.340691    Uiso  ? Al
   Al6        1.0     0.106902     0.104265     0.837890    Uiso  ? Al
   Al7        1.0     0.217446     0.215276     0.580715    Uiso  ? Al
   Al8        1.0     0.783201     0.093443     0.341077    Uiso  ? Al
   Al9        1.0     0.894886     0.206553     0.084466    Uiso  ? Al
   Al10       1.0     0.433421     0.103019     0.825280    Uiso  ? Al
   Al11       1.0     0.556878     0.203123     0.579183    Uiso  ? Al
   Al12       1.0     0.115039     0.424557     0.355058    Uiso  ? Al
   Al13       1.0     0.219681     0.542847     0.149311    Uiso  ? Al
   Al14       1.0     0.777645     0.420989     0.830616    Uiso  ? Al
   Al15       1.0     0.891382     0.538741     0.646355    Uiso  ? Al
   Al16       1.0     0.439983     0.435560     0.400066    Uiso  ? Al
   Al17       1.0     0.552451     0.544847     0.148575    Uiso  ? Al
   Al18       1.0     0.224739     0.534740     0.650782    Uiso  ? Al
   Al19       1.0     0.778843     0.421117     0.334509    Uiso  ? Al
   Al20       1.0     0.893033     0.535801     0.154714    Uiso  ? Al
   Al21       1.0     0.437478     0.442549     0.896237    Uiso  ? Al
   Al22       1.0     0.553731     0.534271     0.648700    Uiso  ? Al
   Al23       1.0     0.113385     0.754447     0.400814    Uiso  ? Al
   Al24       1.0     0.449612     0.755636     0.401162    Uiso  ? Al
   Al25       1.0     0.557721     0.858600     0.161143    Uiso  ? Al
   Al26       1.0     0.112752     0.763741     0.902551    Uiso  ? Al
   Al27       1.0     0.779577     0.754425     0.406583    Uiso  ? Al
   Al28       1.0     0.901048     0.859911     0.159901    Uiso  ? Al
   Al29       1.0     0.441499     0.762073     0.901264    Uiso  ? Al
   Al30       1.0     0.559854     0.865889     0.644058    Uiso  ? Al
   Hf1        1.0     0.559032     0.198216     0.093831    Uiso  ? Hf
   Hf2        1.0     0.774760     0.767345     0.900824    Uiso  ? Hf
   Hf3        1.0     0.221440     0.872171     0.630729    Uiso  ? Hf
   Mg1        1.0     0.118338     0.424368     0.870156    Uiso  ? Mg
   Mg2        1.0     0.225564     0.866359     0.147195    Uiso  ? Mg
   Mg3        1.0     0.887029     0.870663     0.637973    Uiso  ? Mg
   N1         1.0     0.224030     0.201178     0.394961    Uiso  ? N
   N2         1.0     0.101066     0.110630     0.150958    Uiso  ? N
   N3         1.0     0.887064     0.207343     0.896605    Uiso  ? N
   N4         1.0     0.765631     0.118635     0.640407    Uiso  ? N
   N5         1.0     0.558063     0.199679     0.383526    Uiso  ? N
   N6         1.0     0.434020     0.087337     0.151850    Uiso  ? N
   N7         1.0     0.232853     0.185565     0.902007    Uiso  ? N
   N8         1.0     0.095604     0.123099     0.646783    Uiso  ? N
   N9         1.0     0.888492     0.205635     0.396434    Uiso  ? N
   N10        1.0     0.795470     0.089806     0.151096    Uiso  ? N
   N11        1.0     0.555918     0.200669     0.888246    Uiso  ? N
   N12        1.0     0.439711     0.101206     0.636080    Uiso  ? N
   N13        1.0     0.227662     0.539021     0.336518    Uiso  ? N
   N14        1.0     0.116709     0.421554     0.130710    Uiso  ? N
   N15        1.0     0.882323     0.537232     0.840199    Uiso  ? N
   N16        1.0     0.776850     0.426752     0.638264    Uiso  ? N
   N17        1.0     0.549151     0.540440     0.338623    Uiso  ? N
   N18        1.0     0.435612     0.447458     0.087325    Uiso  ? N
   N19        1.0     0.230005     0.551088     0.835635    Uiso  ? N
   N20        1.0     0.110470     0.432451     0.610937    Uiso  ? N
   N21        1.0     0.888759     0.538707     0.344961    Uiso  ? N
   N22        1.0     0.778834     0.422671     0.141306    Uiso  ? N
   N23        1.0     0.549935     0.542219     0.838501    Uiso  ? N
   N24        1.0     0.441446     0.432277     0.586558    Uiso  ? N
   N25        1.0     0.222404     0.873902     0.372171    Uiso  ? N
   N26        1.0     0.104681     0.753035     0.087690    Uiso  ? N
   N27        1.0     0.896794     0.881472     0.845986    Uiso  ? N
   N28        1.0     0.770828     0.753614     0.589785    Uiso  ? N
   N29        1.0     0.560377     0.862104     0.347452    Uiso  ? N
   N30        1.0     0.461060     0.754007     0.084946    Uiso  ? N
   N31        1.0     0.222785     0.871779     0.842774    Uiso  ? N
   N32        1.0     0.116980     0.742692     0.582113    Uiso  ? N
   N33        1.0     0.893253     0.862615     0.348615    Uiso  ? N
   N34        1.0     0.777231     0.762915     0.106030    Uiso  ? N
   N35        1.0     0.541691     0.874588     0.832052    Uiso  ? N
   N36        1.0     0.463414     0.748221     0.586281    Uiso  ? N
