
#======================================================================
# CRYSTAL DATA
#----------------------------------------------------------------------
data_VESTA_phase_1

_chemical_name_common                  'Al   Hf   Mg   N                      '
_cell_length_a                         9.638845
_cell_length_b                         9.621325
_cell_length_c                         10.285475
_cell_angle_alpha                      90.002983
_cell_angle_beta                       89.968773
_cell_angle_gamma                      59.898376
_cell_volume                           825.218895
_space_group_name_H-M_alt              'P 1'
_space_group_IT_number                 1

loop_
_space_group_symop_operation_xyz
   'x, y, z'

loop_
   _atom_site_label
   _atom_site_occupancy
   _atom_site_fract_x
   _atom_site_fract_y
   _atom_site_fract_z
   _atom_site_adp_type
   _atom_site_U_iso_or_equiv
   _atom_site_type_symbol
   Al1        1.0     0.107295     0.101429     0.335827    Uiso  ? Al
   Al2        1.0     0.217874     0.200680     0.084337    Uiso  ? Al
   Al3        1.0     0.777691     0.104553     0.824702    Uiso  ? Al
   Al4        1.0     0.881569     0.217010     0.582906    Uiso  ? Al
   Al5        1.0     0.438542     0.094838     0.341547    Uiso  ? Al
   Al6        1.0     0.107510     0.102878     0.838120    Uiso  ? Al
   Al7        1.0     0.217092     0.216505     0.581229    Uiso  ? Al
   Al8        1.0     0.783149     0.095212     0.341959    Uiso  ? Al
   Al9        1.0     0.895364     0.204845     0.084388    Uiso  ? Al
   Al10       1.0     0.433568     0.102253     0.825374    Uiso  ? Al
   Al11       1.0     0.557162     0.203161     0.578992    Uiso  ? Al
   Al12       1.0     0.112922     0.422926     0.332370    Uiso  ? Al
   Al13       1.0     0.220268     0.544071     0.147892    Uiso  ? Al
   Al14       1.0     0.780491     0.422885     0.836688    Uiso  ? Al
   Al15       1.0     0.892362     0.534701     0.604987    Uiso  ? Al
   Al16       1.0     0.439569     0.436102     0.399731    Uiso  ? Al
   Al17       1.0     0.551619     0.545004     0.149044    Uiso  ? Al
   Al18       1.0     0.226402     0.535322     0.652708    Uiso  ? Al
   Al19       1.0     0.780835     0.422996     0.331371    Uiso  ? Al
   Al20       1.0     0.890650     0.532878     0.116142    Uiso  ? Al
   Al21       1.0     0.438198     0.441132     0.896657    Uiso  ? Al
   Al22       1.0     0.555374     0.533556     0.651215    Uiso  ? Al
   Al23       1.0     0.113759     0.753459     0.400405    Uiso  ? Al
   Al24       1.0     0.449722     0.755332     0.401243    Uiso  ? Al
   Al25       1.0     0.555760     0.860598     0.161915    Uiso  ? Al
   Al26       1.0     0.113407     0.762931     0.902327    Uiso  ? Al
   Al27       1.0     0.777964     0.758086     0.402663    Uiso  ? Al
   Al28       1.0     0.900847     0.861108     0.161021    Uiso  ? Al
   Al29       1.0     0.442213     0.760739     0.901231    Uiso  ? Al
   Al30       1.0     0.559283     0.866011     0.643764    Uiso  ? Al
   Hf1        1.0     0.559498     0.197334     0.094383    Uiso  ? Hf
   Hf2        1.0     0.773076     0.770501     0.902027    Uiso  ? Hf
   Hf3        1.0     0.222130     0.871028     0.630180    Uiso  ? Hf
   Mg1        1.0     0.114799     0.422168     0.847264    Uiso  ? Mg
   Mg2        1.0     0.225273     0.867260     0.147357    Uiso  ? Mg
   Mg3        1.0     0.887918     0.870541     0.637913    Uiso  ? Mg
   N1         1.0     0.221622     0.206031     0.395808    Uiso  ? N
   N2         1.0     0.101202     0.111536     0.151516    Uiso  ? N
   N3         1.0     0.887923     0.205145     0.896726    Uiso  ? N
   N4         1.0     0.765773     0.119431     0.640321    Uiso  ? N
   N5         1.0     0.557974     0.200189     0.383553    Uiso  ? N
   N6         1.0     0.431907     0.089270     0.152415    Uiso  ? N
   N7         1.0     0.232484     0.186479     0.901273    Uiso  ? N
   N8         1.0     0.096716     0.121738     0.646179    Uiso  ? N
   N9         1.0     0.887659     0.207999     0.397548    Uiso  ? N
   N10        1.0     0.795686     0.090476     0.152040    Uiso  ? N
   N11        1.0     0.557063     0.198645     0.888613    Uiso  ? N
   N12        1.0     0.439901     0.101251     0.635585    Uiso  ? N
   N13        1.0     0.227473     0.538854     0.335763    Uiso  ? N
   N14        1.0     0.116006     0.420676     0.139407    Uiso  ? N
   N15        1.0     0.881555     0.530249     0.894746    Uiso  ? N
   N16        1.0     0.781233     0.428049     0.644950    Uiso  ? N
   N17        1.0     0.549483     0.540575     0.338549    Uiso  ? N
   N18        1.0     0.435930     0.446523     0.087446    Uiso  ? N
   N19        1.0     0.231096     0.550554     0.837371    Uiso  ? N
   N20        1.0     0.110347     0.428951     0.633438    Uiso  ? N
   N21        1.0     0.889802     0.536349     0.362422    Uiso  ? N
   N22        1.0     0.778250     0.421342     0.142313    Uiso  ? N
   N23        1.0     0.551157     0.540404     0.839471    Uiso  ? N
   N24        1.0     0.442319     0.432256     0.586897    Uiso  ? N
   N25        1.0     0.222046     0.874668     0.373254    Uiso  ? N
   N26        1.0     0.103985     0.753935     0.087754    Uiso  ? N
   N27        1.0     0.898966     0.880210     0.844450    Uiso  ? N
   N28        1.0     0.769881     0.756023     0.589167    Uiso  ? N
   N29        1.0     0.558120     0.864310     0.348138    Uiso  ? N
   N30        1.0     0.460990     0.754086     0.085289    Uiso  ? N
   N31        1.0     0.223731     0.870768     0.842507    Uiso  ? N
   N32        1.0     0.117558     0.740936     0.581724    Uiso  ? N
   N33        1.0     0.893371     0.864326     0.349346    Uiso  ? N
   N34        1.0     0.773674     0.769520     0.108383    Uiso  ? N
   N35        1.0     0.541064     0.873597     0.831072    Uiso  ? N
   N36        1.0     0.464649     0.746563     0.586504    Uiso  ? N
