
#======================================================================
# CRYSTAL DATA
#----------------------------------------------------------------------
data_VESTA_phase_1

_chemical_name_common                  'Al   Hf   Mg   N                      '
_cell_length_a                         9.621037
_cell_length_b                         9.657170
_cell_length_c                         10.183799
_cell_angle_alpha                      90.204727
_cell_angle_beta                       89.937469
_cell_angle_gamma                      60.143021
_cell_volume                           820.599367
_space_group_name_H-M_alt              'P 1'
_space_group_IT_number                 1

loop_
_space_group_symop_operation_xyz
   'x, y, z'

loop_
   _atom_site_label
   _atom_site_occupancy
   _atom_site_fract_x
   _atom_site_fract_y
   _atom_site_fract_z
   _atom_site_adp_type
   _atom_site_U_iso_or_equiv
   _atom_site_type_symbol
   Al1        1.0     0.107663     0.101551     0.326521    Uiso  ? Al
   Al2        1.0     0.215434     0.203935     0.075840    Uiso  ? Al
   Al3        1.0     0.777028     0.102244     0.821265    Uiso  ? Al
   Al4        1.0     0.882273     0.215539     0.575061    Uiso  ? Al
   Al5        1.0     0.441485     0.090315     0.330138    Uiso  ? Al
   Al6        1.0     0.107502     0.101237     0.826660    Uiso  ? Al
   Al7        1.0     0.218924     0.215614     0.573559    Uiso  ? Al
   Al8        1.0     0.787456     0.089507     0.327058    Uiso  ? Al
   Al9        1.0     0.894097     0.208050     0.075393    Uiso  ? Al
   Al10       1.0     0.436754     0.096507     0.822855    Uiso  ? Al
   Al11       1.0     0.558360     0.201390     0.572882    Uiso  ? Al
   Al12       1.0     0.111142     0.423384     0.326332    Uiso  ? Al
   Al13       1.0     0.218041     0.544511     0.140829    Uiso  ? Al
   Al14       1.0     0.784695     0.419898     0.825291    Uiso  ? Al
   Al15       1.0     0.893097     0.535655     0.568977    Uiso  ? Al
   Al16       1.0     0.441342     0.434474     0.392739    Uiso  ? Al
   Al17       1.0     0.555649     0.539129     0.144061    Uiso  ? Al
   Al18       1.0     0.225643     0.535479     0.641764    Uiso  ? Al
   Al19       1.0     0.783359     0.422995     0.326992    Uiso  ? Al
   Al20       1.0     0.889911     0.532307     0.080169    Uiso  ? Al
   Al21       1.0     0.437813     0.440269     0.888661    Uiso  ? Al
   Al22       1.0     0.560407     0.528849     0.639482    Uiso  ? Al
   Al23       1.0     0.113199     0.752293     0.386870    Uiso  ? Al
   Al24       1.0     0.446792     0.763948     0.327281    Uiso  ? Al
   Al25       1.0     0.550359     0.868524     0.078686    Uiso  ? Al
   Al26       1.0     0.119416     0.758318     0.891560    Uiso  ? Al
   Al27       1.0     0.779778     0.760411     0.319160    Uiso  ? Al
   Al28       1.0     0.891306     0.871058     0.081736    Uiso  ? Al
   Al29       1.0     0.441995     0.761376     0.829444    Uiso  ? Al
   Al30       1.0     0.561449     0.868623     0.569541    Uiso  ? Al
   Hf1        1.0     0.555657     0.202260     0.090722    Uiso  ? Hf
   Hf2        1.0     0.778141     0.758530     0.831444    Uiso  ? Hf
   Hf3        1.0     0.221875     0.875098     0.600673    Uiso  ? Hf
   Mg1        1.0     0.113861     0.419037     0.831020    Uiso  ? Mg
   Mg2        1.0     0.218356     0.875165     0.115534    Uiso  ? Mg
   Mg3        1.0     0.877697     0.878602     0.572298    Uiso  ? Mg
   N1         1.0     0.223406     0.205389     0.385703    Uiso  ? N
   N2         1.0     0.100103     0.112421     0.141598    Uiso  ? N
   N3         1.0     0.888215     0.206107     0.886468    Uiso  ? N
   N4         1.0     0.769057     0.113160     0.635596    Uiso  ? N
   N5         1.0     0.558655     0.200373     0.370497    Uiso  ? N
   N6         1.0     0.433458     0.084468     0.141630    Uiso  ? N
   N7         1.0     0.229574     0.188872     0.890697    Uiso  ? N
   N8         1.0     0.096959     0.122192     0.636115    Uiso  ? N
   N9         1.0     0.888481     0.206326     0.387425    Uiso  ? N
   N10        1.0     0.796289     0.088769     0.137498    Uiso  ? N
   N11        1.0     0.553989     0.202245     0.882222    Uiso  ? N
   N12        1.0     0.445459     0.092307     0.631037    Uiso  ? N
   N13        1.0     0.228003     0.537671     0.329047    Uiso  ? N
   N14        1.0     0.110643     0.422649     0.133289    Uiso  ? N
   N15        1.0     0.882257     0.528231     0.895594    Uiso  ? N
   N16        1.0     0.784982     0.427477     0.632656    Uiso  ? N
   N17        1.0     0.554980     0.535683     0.339504    Uiso  ? N
   N18        1.0     0.434452     0.448357     0.080980    Uiso  ? N
   N19        1.0     0.229926     0.548977     0.827867    Uiso  ? N
   N20        1.0     0.109734     0.428839     0.620440    Uiso  ? N
   N21        1.0     0.888385     0.539622     0.378309    Uiso  ? N
   N22        1.0     0.781619     0.422393     0.136409    Uiso  ? N
   N23        1.0     0.556747     0.534321     0.834830    Uiso  ? N
   N24        1.0     0.444467     0.428170     0.580817    Uiso  ? N
   N25        1.0     0.223010     0.877518     0.374910    Uiso  ? N
   N26        1.0     0.110433     0.748881     0.079030    Uiso  ? N
   N27        1.0     0.887752     0.888744     0.884942    Uiso  ? N
   N28        1.0     0.772932     0.751548     0.629683    Uiso  ? N
   N29        1.0     0.559373     0.871244     0.382529    Uiso  ? N
   N30        1.0     0.455789     0.757552     0.137365    Uiso  ? N
   N31        1.0     0.217440     0.874420     0.834574    Uiso  ? N
   N32        1.0     0.118171     0.739543     0.574482    Uiso  ? N
   N33        1.0     0.888553     0.870868     0.363604    Uiso  ? N
   N34        1.0     0.775516     0.761796     0.125587    Uiso  ? N
   N35        1.0     0.538467     0.880252     0.889347    Uiso  ? N
   N36        1.0     0.465437     0.752689     0.630285    Uiso  ? N
