
#======================================================================
# CRYSTAL DATA
#----------------------------------------------------------------------
data_VESTA_phase_1

_chemical_name_common                  'Al   Hf   Mg   N                      '
_cell_length_a                         9.613391
_cell_length_b                         9.632611
_cell_length_c                         10.226620
_cell_angle_alpha                      89.979980
_cell_angle_beta                       89.803284
_cell_angle_gamma                      60.083672
_cell_volume                           820.816030
_space_group_name_H-M_alt              'P 1'
_space_group_IT_number                 1

loop_
_space_group_symop_operation_xyz
   'x, y, z'

loop_
   _atom_site_label
   _atom_site_occupancy
   _atom_site_fract_x
   _atom_site_fract_y
   _atom_site_fract_z
   _atom_site_adp_type
   _atom_site_U_iso_or_equiv
   _atom_site_type_symbol
   Al1        1.0     0.107291     0.102440     0.332887    Uiso  ? Al
   Al2        1.0     0.216968     0.201235     0.085096    Uiso  ? Al
   Al3        1.0     0.774848     0.105553     0.827245    Uiso  ? Al
   Al4        1.0     0.883560     0.211436     0.582528    Uiso  ? Al
   Al5        1.0     0.441420     0.090783     0.359832    Uiso  ? Al
   Al6        1.0     0.105444     0.103043     0.836261    Uiso  ? Al
   Al7        1.0     0.218742     0.210488     0.581741    Uiso  ? Al
   Al8        1.0     0.787268     0.092766     0.338538    Uiso  ? Al
   Al9        1.0     0.897732     0.199532     0.084112    Uiso  ? Al
   Al10       1.0     0.436677     0.100092     0.843281    Uiso  ? Al
   Al11       1.0     0.558170     0.205416     0.577050    Uiso  ? Al
   Al12       1.0     0.108884     0.434148     0.396206    Uiso  ? Al
   Al13       1.0     0.214625     0.542175     0.148962    Uiso  ? Al
   Al14       1.0     0.773545     0.429890     0.900698    Uiso  ? Al
   Al15       1.0     0.887368     0.535668     0.645062    Uiso  ? Al
   Al16       1.0     0.439873     0.438022     0.396064    Uiso  ? Al
   Al17       1.0     0.558150     0.544259     0.147617    Uiso  ? Al
   Al18       1.0     0.224719     0.533806     0.649547    Uiso  ? Al
   Al19       1.0     0.774082     0.433515     0.398697    Uiso  ? Al
   Al20       1.0     0.894936     0.529348     0.155383    Uiso  ? Al
   Al21       1.0     0.437375     0.440947     0.897665    Uiso  ? Al
   Al22       1.0     0.562181     0.530125     0.649951    Uiso  ? Al
   Al23       1.0     0.113272     0.755264     0.398527    Uiso  ? Al
   Al24       1.0     0.450555     0.755450     0.399537    Uiso  ? Al
   Al25       1.0     0.556634     0.861866     0.158729    Uiso  ? Al
   Al26       1.0     0.113284     0.762187     0.901201    Uiso  ? Al
   Al27       1.0     0.779626     0.755638     0.404183    Uiso  ? Al
   Al28       1.0     0.900285     0.858446     0.156986    Uiso  ? Al
   Al29       1.0     0.441343     0.761393     0.899715    Uiso  ? Al
   Al30       1.0     0.560355     0.867072     0.641347    Uiso  ? Al
   Hf1        1.0     0.555534     0.203601     0.106519    Uiso  ? Hf
   Hf2        1.0     0.777032     0.762707     0.897996    Uiso  ? Hf
   Hf3        1.0     0.222720     0.870830     0.627375    Uiso  ? Hf
   Mg1        1.0     0.112776     0.430492     0.894420    Uiso  ? Mg
   Mg2        1.0     0.226603     0.865876     0.145581    Uiso  ? Mg
   Mg3        1.0     0.886697     0.871013     0.637001    Uiso  ? Mg
   N1         1.0     0.220469     0.204025     0.393654    Uiso  ? N
   N2         1.0     0.101475     0.110251     0.149698    Uiso  ? N
   N3         1.0     0.889688     0.200870     0.895146    Uiso  ? N
   N4         1.0     0.764663     0.119241     0.641705    Uiso  ? N
   N5         1.0     0.559170     0.203637     0.374484    Uiso  ? N
   N6         1.0     0.433685     0.085351     0.142070    Uiso  ? N
   N7         1.0     0.228741     0.187024     0.897243    Uiso  ? N
   N8         1.0     0.095151     0.122497     0.646774    Uiso  ? N
   N9         1.0     0.891515     0.201912     0.394560    Uiso  ? N
   N10        1.0     0.797253     0.087085     0.149365    Uiso  ? N
   N11        1.0     0.555728     0.202062     0.893992    Uiso  ? N
   N12        1.0     0.444435     0.095490     0.616171    Uiso  ? N
   N13        1.0     0.224177     0.538142     0.336987    Uiso  ? N
   N14        1.0     0.111281     0.427851     0.103481    Uiso  ? N
   N15        1.0     0.880414     0.530967     0.831185    Uiso  ? N
   N16        1.0     0.772774     0.435290     0.586502    Uiso  ? N
   N17        1.0     0.556365     0.538884     0.335926    Uiso  ? N
   N18        1.0     0.432825     0.452301     0.089595    Uiso  ? N
   N19        1.0     0.229320     0.548066     0.833609    Uiso  ? N
   N20        1.0     0.107393     0.435757     0.589609    Uiso  ? N
   N21        1.0     0.888811     0.536772     0.342249    Uiso  ? N
   N22        1.0     0.775913     0.431339     0.091653    Uiso  ? N
   N23        1.0     0.556863     0.537082     0.838197    Uiso  ? N
   N24        1.0     0.442576     0.432566     0.584841    Uiso  ? N
   N25        1.0     0.223535     0.874203     0.372207    Uiso  ? N
   N26        1.0     0.105028     0.752996     0.087377    Uiso  ? N
   N27        1.0     0.896127     0.879998     0.845499    Uiso  ? N
   N28        1.0     0.772497     0.751991     0.589091    Uiso  ? N
   N29        1.0     0.560317     0.863530     0.346763    Uiso  ? N
   N30        1.0     0.461564     0.754078     0.084122    Uiso  ? N
   N31        1.0     0.223858     0.869573     0.840693    Uiso  ? N
   N32        1.0     0.117265     0.741470     0.581305    Uiso  ? N
   N33        1.0     0.893175     0.862955     0.347769    Uiso  ? N
   N34        1.0     0.777998     0.760032     0.104458    Uiso  ? N
   N35        1.0     0.542082     0.876056     0.830861    Uiso  ? N
   N36        1.0     0.465075     0.746140     0.586678    Uiso  ? N
