
#======================================================================
# CRYSTAL DATA
#----------------------------------------------------------------------
data_VESTA_phase_1

_chemical_name_common                  'Al   Hf   Mg   N                      '
_cell_length_a                         9.580892
_cell_length_b                         9.599660
_cell_length_c                         10.119165
_cell_angle_alpha                      90.041634
_cell_angle_beta                       89.947853
_cell_angle_gamma                      59.997414
_cell_volume                           805.981732
_space_group_name_H-M_alt              'P 1'
_space_group_IT_number                 1

loop_
_space_group_symop_operation_xyz
   'x, y, z'

loop_
   _atom_site_label
   _atom_site_occupancy
   _atom_site_fract_x
   _atom_site_fract_y
   _atom_site_fract_z
   _atom_site_adp_type
   _atom_site_U_iso_or_equiv
   _atom_site_type_symbol
   Al1        1.0     0.107594     0.100159     0.400313    Uiso  ? Al
   Al2        1.0     0.214803     0.208170     0.155115    Uiso  ? Al
   Al3        1.0     0.785622     0.094505     0.899360    Uiso  ? Al
   Al4        1.0     0.881355     0.214547     0.652863    Uiso  ? Al
   Al5        1.0     0.442154     0.093450     0.407161    Uiso  ? Al
   Al6        1.0     0.109985     0.098663     0.907026    Uiso  ? Al
   Al7        1.0     0.219844     0.210878     0.653044    Uiso  ? Al
   Al8        1.0     0.779395     0.096839     0.407956    Uiso  ? Al
   Al9        1.0     0.893678     0.208013     0.153043    Uiso  ? Al
   Al10       1.0     0.435306     0.093627     0.896978    Uiso  ? Al
   Al11       1.0     0.555789     0.206607     0.654614    Uiso  ? Al
   Al12       1.0     0.112730     0.427285     0.402006    Uiso  ? Al
   Al13       1.0     0.215986     0.542502     0.155359    Uiso  ? Al
   Al14       1.0     0.777529     0.423967     0.903699    Uiso  ? Al
   Al15       1.0     0.888674     0.534277     0.647077    Uiso  ? Al
   Al16       1.0     0.442723     0.431024     0.408119    Uiso  ? Al
   Al17       1.0     0.557661     0.542880     0.153011    Uiso  ? Al
   Al18       1.0     0.222614     0.534973     0.654380    Uiso  ? Al
   Al19       1.0     0.776878     0.427250     0.403244    Uiso  ? Al
   Al20       1.0     0.892961     0.533702     0.159697    Uiso  ? Al
   Al21       1.0     0.440333     0.435880     0.897353    Uiso  ? Al
   Al22       1.0     0.561494     0.532931     0.653580    Uiso  ? Al
   Al23       1.0     0.112679     0.757229     0.400845    Uiso  ? Al
   Al24       1.0     0.447942     0.757934     0.401136    Uiso  ? Al
   Al25       1.0     0.553863     0.867285     0.158363    Uiso  ? Al
   Al26       1.0     0.115536     0.758286     0.910236    Uiso  ? Al
   Al27       1.0     0.777419     0.759565     0.406429    Uiso  ? Al
   Al28       1.0     0.895682     0.867915     0.158861    Uiso  ? Al
   Al29       1.0     0.444030     0.757969     0.907482    Uiso  ? Al
   Al30       1.0     0.557311     0.870777     0.647733    Uiso  ? Al
   Hf1        1.0     0.553672     0.206605     0.143929    Uiso  ? Hf
   Hf2        1.0     0.779259     0.759444     0.899178    Uiso  ? Hf
   Hf3        1.0     0.220445     0.873658     0.644352    Uiso  ? Hf
   Mg1        1.0     0.116928     0.422261     0.903445    Uiso  ? Mg
   Mg2        1.0     0.222524     0.873531     0.154527    Uiso  ? Mg
   Mg3        1.0     0.886041     0.874437     0.644946    Uiso  ? Mg
   N1         1.0     0.224271     0.204445     0.345894    Uiso  ? N
   N2         1.0     0.103882     0.109286     0.092988    Uiso  ? N
   N3         1.0     0.889081     0.206789     0.843103    Uiso  ? N
   N4         1.0     0.769399     0.111996     0.593423    Uiso  ? N
   N5         1.0     0.553947     0.206096     0.350459    Uiso  ? N
   N6         1.0     0.435849     0.083710     0.089495    Uiso  ? N
   N7         1.0     0.226271     0.191446     0.837133    Uiso  ? N
   N8         1.0     0.097840     0.116252     0.589391    Uiso  ? N
   N9         1.0     0.886938     0.207269     0.342279    Uiso  ? N
   N10        1.0     0.794637     0.086847     0.092025    Uiso  ? N
   N11        1.0     0.555469     0.204245     0.853471    Uiso  ? N
   N12        1.0     0.444626     0.094311     0.595865    Uiso  ? N
   N13        1.0     0.225600     0.536482     0.345116    Uiso  ? N
   N14        1.0     0.112329     0.427020     0.109086    Uiso  ? N
   N15        1.0     0.883524     0.527830     0.835477    Uiso  ? N
   N16        1.0     0.776092     0.427847     0.591303    Uiso  ? N
   N17        1.0     0.555569     0.537193     0.343716    Uiso  ? N
   N18        1.0     0.436095     0.445907     0.089284    Uiso  ? N
   N19        1.0     0.227561     0.547667     0.840041    Uiso  ? N
   N20        1.0     0.112081     0.427329     0.593090    Uiso  ? N
   N21        1.0     0.888208     0.537957     0.348792    Uiso  ? N
   N22        1.0     0.777760     0.427819     0.095278    Uiso  ? N
   N23        1.0     0.557483     0.538127     0.843329    Uiso  ? N
   N24        1.0     0.445217     0.426582     0.597457    Uiso  ? N
   N25        1.0     0.222445     0.874328     0.367433    Uiso  ? N
   N26        1.0     0.105159     0.753550     0.096915    Uiso  ? N
   N27        1.0     0.899303     0.878617     0.849627    Uiso  ? N
   N28        1.0     0.771780     0.752727     0.594799    Uiso  ? N
   N29        1.0     0.554713     0.873516     0.347088    Uiso  ? N
   N30        1.0     0.460599     0.753183     0.092789    Uiso  ? N
   N31        1.0     0.222163     0.872619     0.854796    Uiso  ? N
   N32        1.0     0.118193     0.743303     0.585986    Uiso  ? N
   N33        1.0     0.887192     0.874262     0.349379    Uiso  ? N
   N34        1.0     0.777782     0.761172     0.107596    Uiso  ? N
   N35        1.0     0.540710     0.877066     0.837376    Uiso  ? N
   N36        1.0     0.461441     0.749373     0.590822    Uiso  ? N
