
#======================================================================
# CRYSTAL DATA
#----------------------------------------------------------------------
data_VESTA_phase_1

_chemical_name_common                  'Al   Hf   Mg   N                      '
_cell_length_a                         9.633292
_cell_length_b                         9.620855
_cell_length_c                         10.294609
_cell_angle_alpha                      89.927254
_cell_angle_beta                       89.883743
_cell_angle_gamma                      59.909267
_cell_volume                           825.524948
_space_group_name_H-M_alt              'P 1'
_space_group_IT_number                 1

loop_
_space_group_symop_operation_xyz
   'x, y, z'

loop_
   _atom_site_label
   _atom_site_occupancy
   _atom_site_fract_x
   _atom_site_fract_y
   _atom_site_fract_z
   _atom_site_adp_type
   _atom_site_U_iso_or_equiv
   _atom_site_type_symbol
   Al1        1.0     0.107861     0.100336     0.334232    Uiso  ? Al
   Al2        1.0     0.218609     0.199507     0.086250    Uiso  ? Al
   Al3        1.0     0.776553     0.105682     0.824639    Uiso  ? Al
   Al4        1.0     0.880770     0.216798     0.581280    Uiso  ? Al
   Al5        1.0     0.440104     0.092861     0.340249    Uiso  ? Al
   Al6        1.0     0.106955     0.104177     0.837975    Uiso  ? Al
   Al7        1.0     0.218556     0.213020     0.580918    Uiso  ? Al
   Al8        1.0     0.783212     0.093487     0.340900    Uiso  ? Al
   Al9        1.0     0.894841     0.206758     0.084478    Uiso  ? Al
   Al10       1.0     0.433538     0.102962     0.825426    Uiso  ? Al
   Al11       1.0     0.556957     0.203159     0.579045    Uiso  ? Al
   Al12       1.0     0.113069     0.428168     0.374696    Uiso  ? Al
   Al13       1.0     0.218563     0.541812     0.149726    Uiso  ? Al
   Al14       1.0     0.778126     0.420978     0.830214    Uiso  ? Al
   Al15       1.0     0.891615     0.538721     0.645865    Uiso  ? Al
   Al16       1.0     0.439974     0.435538     0.399785    Uiso  ? Al
   Al17       1.0     0.552532     0.544827     0.148403    Uiso  ? Al
   Al18       1.0     0.224249     0.534455     0.650368    Uiso  ? Al
   Al19       1.0     0.778952     0.421121     0.334248    Uiso  ? Al
   Al20       1.0     0.895656     0.534474     0.155461    Uiso  ? Al
   Al21       1.0     0.437228     0.442520     0.896044    Uiso  ? Al
   Al22       1.0     0.553666     0.534270     0.648599    Uiso  ? Al
   Al23       1.0     0.113360     0.754762     0.400537    Uiso  ? Al
   Al24       1.0     0.449576     0.755689     0.401059    Uiso  ? Al
   Al25       1.0     0.558004     0.858410     0.160972    Uiso  ? Al
   Al26       1.0     0.112755     0.763409     0.902500    Uiso  ? Al
   Al27       1.0     0.779129     0.754930     0.406251    Uiso  ? Al
   Al28       1.0     0.901077     0.859840     0.159662    Uiso  ? Al
   Al29       1.0     0.441491     0.762128     0.901280    Uiso  ? Al
   Al30       1.0     0.559973     0.865747     0.644126    Uiso  ? Al
   Hf1        1.0     0.558867     0.198452     0.093772    Uiso  ? Hf
   Hf2        1.0     0.775281     0.766581     0.900740    Uiso  ? Hf
   Hf3        1.0     0.221352     0.872123     0.630651    Uiso  ? Hf
   Mg1        1.0     0.117454     0.426321     0.883379    Uiso  ? Mg
   Mg2        1.0     0.225585     0.866190     0.147089    Uiso  ? Mg
   Mg3        1.0     0.886870     0.870814     0.637938    Uiso  ? Mg
   N1         1.0     0.224402     0.200233     0.394967    Uiso  ? N
   N2         1.0     0.101130     0.110464     0.150819    Uiso  ? N
   N3         1.0     0.887030     0.207501     0.896539    Uiso  ? N
   N4         1.0     0.765662     0.118617     0.640443    Uiso  ? N
   N5         1.0     0.558030     0.199698     0.383517    Uiso  ? N
   N6         1.0     0.434144     0.087201     0.151686    Uiso  ? N
   N7         1.0     0.233241     0.184752     0.901217    Uiso  ? N
   N8         1.0     0.095490     0.123305     0.647040    Uiso  ? N
   N9         1.0     0.888537     0.205678     0.396380    Uiso  ? N
   N10        1.0     0.795443     0.089851     0.151014    Uiso  ? N
   N11        1.0     0.555888     0.200788     0.888176    Uiso  ? N
   N12        1.0     0.439750     0.101327     0.636328    Uiso  ? N
   N13        1.0     0.226891     0.538487     0.336642    Uiso  ? N
   N14        1.0     0.115882     0.423203     0.119698    Uiso  ? N
   N15        1.0     0.884303     0.536528     0.837835    Uiso  ? N
   N16        1.0     0.776856     0.426766     0.637877    Uiso  ? N
   N17        1.0     0.549087     0.540507     0.338592    Uiso  ? N
   N18        1.0     0.435298     0.447691     0.087324    Uiso  ? N
   N19        1.0     0.229335     0.550097     0.834518    Uiso  ? N
   N20        1.0     0.109428     0.434341     0.598004    Uiso  ? N
   N21        1.0     0.889397     0.538601     0.344841    Uiso  ? N
   N22        1.0     0.779116     0.422840     0.141423    Uiso  ? N
   N23        1.0     0.550036     0.542201     0.838437    Uiso  ? N
   N24        1.0     0.441223     0.432268     0.586468    Uiso  ? N
   N25        1.0     0.222359     0.873942     0.372165    Uiso  ? N
   N26        1.0     0.104940     0.752741     0.087725    Uiso  ? N
   N27        1.0     0.896578     0.881485     0.846027    Uiso  ? N
   N28        1.0     0.770816     0.753679     0.589497    Uiso  ? N
   N29        1.0     0.560246     0.862213     0.347338    Uiso  ? N
   N30        1.0     0.461076     0.754009     0.084852    Uiso  ? N
   N31        1.0     0.222764     0.871425     0.842605    Uiso  ? N
   N32        1.0     0.116882     0.742653     0.582041    Uiso  ? N
   N33        1.0     0.893194     0.862750     0.348540    Uiso  ? N
   N34        1.0     0.777473     0.762529     0.105976    Uiso  ? N
   N35        1.0     0.542116     0.874306     0.831996    Uiso  ? N
   N36        1.0     0.463345     0.748248     0.586260    Uiso  ? N
