
#======================================================================
# CRYSTAL DATA
#----------------------------------------------------------------------
data_VESTA_phase_1

_chemical_name_common                  'Al   Hf   Mg   N                      '
_cell_length_a                         9.608577
_cell_length_b                         9.636622
_cell_length_c                         10.089289
_cell_angle_alpha                      90.049606
_cell_angle_beta                       89.733475
_cell_angle_gamma                      59.969883
_cell_volume                           808.789596
_space_group_name_H-M_alt              'P 1'
_space_group_IT_number                 1

loop_
_space_group_symop_operation_xyz
   'x, y, z'

loop_
   _atom_site_label
   _atom_site_occupancy
   _atom_site_fract_x
   _atom_site_fract_y
   _atom_site_fract_z
   _atom_site_adp_type
   _atom_site_U_iso_or_equiv
   _atom_site_type_symbol
   Al1        1.0     0.109932     0.099677     0.400047    Uiso  ? Al
   Al2        1.0     0.216267     0.207309     0.154470    Uiso  ? Al
   Al3        1.0     0.779930     0.097843     0.841977    Uiso  ? Al
   Al4        1.0     0.884318     0.219638     0.648749    Uiso  ? Al
   Al5        1.0     0.442286     0.093646     0.404820    Uiso  ? Al
   Al6        1.0     0.108680     0.099179     0.907834    Uiso  ? Al
   Al7        1.0     0.219115     0.211580     0.652747    Uiso  ? Al
   Al8        1.0     0.779921     0.095477     0.386115    Uiso  ? Al
   Al9        1.0     0.894920     0.207453     0.154575    Uiso  ? Al
   Al10       1.0     0.432967     0.092853     0.897170    Uiso  ? Al
   Al11       1.0     0.546709     0.211347     0.650283    Uiso  ? Al
   Al12       1.0     0.113165     0.427039     0.401106    Uiso  ? Al
   Al13       1.0     0.217764     0.540884     0.154221    Uiso  ? Al
   Al14       1.0     0.777082     0.424640     0.904332    Uiso  ? Al
   Al15       1.0     0.887812     0.535479     0.647849    Uiso  ? Al
   Al16       1.0     0.442941     0.430595     0.405397    Uiso  ? Al
   Al17       1.0     0.558354     0.542553     0.152598    Uiso  ? Al
   Al18       1.0     0.222146     0.535511     0.654164    Uiso  ? Al
   Al19       1.0     0.776685     0.429231     0.402806    Uiso  ? Al
   Al20       1.0     0.894322     0.532443     0.158552    Uiso  ? Al
   Al21       1.0     0.438434     0.438774     0.897678    Uiso  ? Al
   Al22       1.0     0.560453     0.533659     0.652743    Uiso  ? Al
   Al23       1.0     0.116062     0.754747     0.400731    Uiso  ? Al
   Al24       1.0     0.447479     0.758093     0.400511    Uiso  ? Al
   Al25       1.0     0.554523     0.866238     0.157954    Uiso  ? Al
   Al26       1.0     0.114002     0.759667     0.910113    Uiso  ? Al
   Al27       1.0     0.776790     0.757212     0.406191    Uiso  ? Al
   Al28       1.0     0.897743     0.864065     0.161366    Uiso  ? Al
   Al29       1.0     0.444070     0.757966     0.907292    Uiso  ? Al
   Al30       1.0     0.555915     0.871266     0.647082    Uiso  ? Al
   Hf1        1.0     0.556552     0.204542     0.136453    Uiso  ? Hf
   Hf2        1.0     0.778424     0.761702     0.898956    Uiso  ? Hf
   Hf3        1.0     0.219843     0.874406     0.644906    Uiso  ? Hf
   Mg1        1.0     0.116309     0.422866     0.902799    Uiso  ? Mg
   Mg2        1.0     0.222065     0.873280     0.153037    Uiso  ? Mg
   Mg3        1.0     0.888197     0.868739     0.635211    Uiso  ? Mg
   N1         1.0     0.224984     0.204432     0.345533    Uiso  ? N
   N2         1.0     0.104688     0.109325     0.093787    Uiso  ? N
   N3         1.0     0.890870     0.209876     0.841233    Uiso  ? N
   N4         1.0     0.768234     0.112817     0.615788    Uiso  ? N
   N5         1.0     0.552313     0.206859     0.348891    Uiso  ? N
   N6         1.0     0.436745     0.080741     0.089154    Uiso  ? N
   N7         1.0     0.224977     0.191752     0.837131    Uiso  ? N
   N8         1.0     0.099733     0.116043     0.588925    Uiso  ? N
   N9         1.0     0.889658     0.209619     0.346921    Uiso  ? N
   N10        1.0     0.797569     0.083447     0.123179    Uiso  ? N
   N11        1.0     0.548978     0.207450     0.853603    Uiso  ? N
   N12        1.0     0.443071     0.094569     0.594313    Uiso  ? N
   N13        1.0     0.226351     0.535581     0.344410    Uiso  ? N
   N14        1.0     0.114065     0.425665     0.108798    Uiso  ? N
   N15        1.0     0.882197     0.529895     0.836654    Uiso  ? N
   N16        1.0     0.774870     0.431037     0.590630    Uiso  ? N
   N17        1.0     0.555900     0.537430     0.343791    Uiso  ? N
   N18        1.0     0.437336     0.446992     0.088998    Uiso  ? N
   N19        1.0     0.226638     0.548831     0.840028    Uiso  ? N
   N20        1.0     0.111431     0.428036     0.593367    Uiso  ? N
   N21        1.0     0.889132     0.537323     0.348145    Uiso  ? N
   N22        1.0     0.778814     0.426913     0.095917    Uiso  ? N
   N23        1.0     0.557375     0.538165     0.842747    Uiso  ? N
   N24        1.0     0.443753     0.428237     0.595372    Uiso  ? N
   N25        1.0     0.222584     0.874295     0.366767    Uiso  ? N
   N26        1.0     0.106023     0.751568     0.096930    Uiso  ? N
   N27        1.0     0.900054     0.877481     0.845849    Uiso  ? N
   N28        1.0     0.769749     0.751790     0.594475    Uiso  ? N
   N29        1.0     0.554942     0.872966     0.347161    Uiso  ? N
   N30        1.0     0.461502     0.752400     0.092801    Uiso  ? N
   N31        1.0     0.221847     0.873002     0.855706    Uiso  ? N
   N32        1.0     0.121300     0.742050     0.585888    Uiso  ? N
   N33        1.0     0.890466     0.868114     0.354989    Uiso  ? N
   N34        1.0     0.779104     0.759444     0.107988    Uiso  ? N
   N35        1.0     0.540194     0.877415     0.836885    Uiso  ? N
   N36        1.0     0.460116     0.750102     0.590960    Uiso  ? N
