
#======================================================================
# CRYSTAL DATA
#----------------------------------------------------------------------
data_VESTA_phase_1

_chemical_name_common                  'Al   Hf   Mg   N                      '
_cell_length_a                         9.619409
_cell_length_b                         9.637232
_cell_length_c                         10.228687
_cell_angle_alpha                      89.931961
_cell_angle_beta                       89.764000
_cell_angle_gamma                      60.081821
_cell_volume                           821.873147
_space_group_name_H-M_alt              'P 1'
_space_group_IT_number                 1

loop_
_space_group_symop_operation_xyz
   'x, y, z'

loop_
   _atom_site_label
   _atom_site_occupancy
   _atom_site_fract_x
   _atom_site_fract_y
   _atom_site_fract_z
   _atom_site_adp_type
   _atom_site_U_iso_or_equiv
   _atom_site_type_symbol
   Al1        1.0     0.107415     0.102569     0.332855    Uiso  ? Al
   Al2        1.0     0.212280     0.203468     0.084334    Uiso  ? Al
   Al3        1.0     0.773703     0.105948     0.828194    Uiso  ? Al
   Al4        1.0     0.883536     0.211423     0.582349    Uiso  ? Al
   Al5        1.0     0.444976     0.086634     0.391667    Uiso  ? Al
   Al6        1.0     0.104726     0.103184     0.835211    Uiso  ? Al
   Al7        1.0     0.217278     0.211134     0.581993    Uiso  ? Al
   Al8        1.0     0.788054     0.092428     0.338176    Uiso  ? Al
   Al9        1.0     0.897923     0.199146     0.083502    Uiso  ? Al
   Al10       1.0     0.440293     0.091673     0.890437    Uiso  ? Al
   Al11       1.0     0.558902     0.206425     0.579650    Uiso  ? Al
   Al12       1.0     0.108876     0.434059     0.395365    Uiso  ? Al
   Al13       1.0     0.214484     0.542793     0.148878    Uiso  ? Al
   Al14       1.0     0.773586     0.429656     0.900461    Uiso  ? Al
   Al15       1.0     0.886958     0.536058     0.644674    Uiso  ? Al
   Al16       1.0     0.439631     0.438234     0.395197    Uiso  ? Al
   Al17       1.0     0.558213     0.544525     0.147491    Uiso  ? Al
   Al18       1.0     0.224707     0.533806     0.649687    Uiso  ? Al
   Al19       1.0     0.774040     0.433566     0.398634    Uiso  ? Al
   Al20       1.0     0.894538     0.529786     0.155366    Uiso  ? Al
   Al21       1.0     0.438183     0.439693     0.898108    Uiso  ? Al
   Al22       1.0     0.562314     0.530646     0.649774    Uiso  ? Al
   Al23       1.0     0.113151     0.755348     0.398534    Uiso  ? Al
   Al24       1.0     0.450528     0.756124     0.398826    Uiso  ? Al
   Al25       1.0     0.556015     0.863225     0.156584    Uiso  ? Al
   Al26       1.0     0.113510     0.762160     0.901025    Uiso  ? Al
   Al27       1.0     0.778866     0.756197     0.403531    Uiso  ? Al
   Al28       1.0     0.900354     0.858222     0.156560    Uiso  ? Al
   Al29       1.0     0.441339     0.760605     0.899349    Uiso  ? Al
   Al30       1.0     0.559183     0.869927     0.642776    Uiso  ? Al
   Hf1        1.0     0.555560     0.205933     0.113660    Uiso  ? Hf
   Hf2        1.0     0.777592     0.762268     0.897711    Uiso  ? Hf
   Hf3        1.0     0.223079     0.870416     0.627102    Uiso  ? Hf
   Mg1        1.0     0.112755     0.431134     0.893281    Uiso  ? Mg
   Mg2        1.0     0.226817     0.865527     0.145426    Uiso  ? Mg
   Mg3        1.0     0.886689     0.870784     0.637055    Uiso  ? Mg
   N1         1.0     0.219324     0.205228     0.390830    Uiso  ? N
   N2         1.0     0.101313     0.109650     0.150001    Uiso  ? N
   N3         1.0     0.889587     0.200764     0.894704    Uiso  ? N
   N4         1.0     0.765004     0.118930     0.641841    Uiso  ? N
   N5         1.0     0.558176     0.204782     0.367683    Uiso  ? N
   N6         1.0     0.438836     0.078608     0.105926    Uiso  ? N
   N7         1.0     0.223135     0.190433     0.895203    Uiso  ? N
   N8         1.0     0.095200     0.121895     0.645873    Uiso  ? N
   N9         1.0     0.891319     0.201985     0.394573    Uiso  ? N
   N10        1.0     0.798544     0.086311     0.148990    Uiso  ? N
   N11        1.0     0.557133     0.204001     0.895743    Uiso  ? N
   N12        1.0     0.448215     0.089858     0.589944    Uiso  ? N
   N13        1.0     0.223830     0.538676     0.336952    Uiso  ? N
   N14        1.0     0.111218     0.428323     0.103817    Uiso  ? N
   N15        1.0     0.880057     0.531261     0.830760    Uiso  ? N
   N16        1.0     0.772874     0.435147     0.586423    Uiso  ? N
   N17        1.0     0.556391     0.539387     0.336004    Uiso  ? N
   N18        1.0     0.432257     0.453563     0.089894    Uiso  ? N
   N19        1.0     0.229817     0.548278     0.833541    Uiso  ? N
   N20        1.0     0.107539     0.435676     0.589509    Uiso  ? N
   N21        1.0     0.888236     0.537333     0.342289    Uiso  ? N
   N22        1.0     0.776175     0.431008     0.091559    Uiso  ? N
   N23        1.0     0.556889     0.537197     0.837879    Uiso  ? N
   N24        1.0     0.442874     0.432173     0.584280    Uiso  ? N
   N25        1.0     0.223496     0.874233     0.372312    Uiso  ? N
   N26        1.0     0.105000     0.753169     0.087192    Uiso  ? N
   N27        1.0     0.896281     0.879805     0.845397    Uiso  ? N
   N28        1.0     0.771495     0.752488     0.588865    Uiso  ? N
   N29        1.0     0.558297     0.866816     0.343036    Uiso  ? N
   N30        1.0     0.461747     0.753456     0.083777    Uiso  ? N
   N31        1.0     0.223962     0.869623     0.840327    Uiso  ? N
   N32        1.0     0.117332     0.741297     0.581279    Uiso  ? N
   N33        1.0     0.893024     0.863003     0.347700    Uiso  ? N
   N34        1.0     0.778808     0.759098     0.104052    Uiso  ? N
   N35        1.0     0.540783     0.879039     0.830995    Uiso  ? N
   N36        1.0     0.465560     0.746785     0.586484    Uiso  ? N
