
#======================================================================
# CRYSTAL DATA
#----------------------------------------------------------------------
data_VESTA_phase_1

_chemical_name_common                  'Al   Hf   Mg   N                      '
_cell_length_a                         9.623741
_cell_length_b                         9.645364
_cell_length_c                         10.111646
_cell_angle_alpha                      89.988838
_cell_angle_beta                       89.630760
_cell_angle_gamma                      60.037689
_cell_volume                           813.145326
_space_group_name_H-M_alt              'P 1'
_space_group_IT_number                 1

loop_
_space_group_symop_operation_xyz
   'x, y, z'

loop_
   _atom_site_label
   _atom_site_occupancy
   _atom_site_fract_x
   _atom_site_fract_y
   _atom_site_fract_z
   _atom_site_adp_type
   _atom_site_U_iso_or_equiv
   _atom_site_type_symbol
   Al1        1.0     0.114296     0.096610     0.397007    Uiso  ? Al
   Al2        1.0     0.217434     0.207902     0.157095    Uiso  ? Al
   Al3        1.0     0.784388     0.101417     0.830771    Uiso  ? Al
   Al4        1.0     0.878670     0.214283     0.588526    Uiso  ? Al
   Al5        1.0     0.443671     0.094517     0.405310    Uiso  ? Al
   Al6        1.0     0.113700     0.096090     0.910450    Uiso  ? Al
   Al7        1.0     0.218179     0.211525     0.653730    Uiso  ? Al
   Al8        1.0     0.782950     0.093193     0.345147    Uiso  ? Al
   Al9        1.0     0.893868     0.206613     0.107848    Uiso  ? Al
   Al10       1.0     0.432944     0.092840     0.897663    Uiso  ? Al
   Al11       1.0     0.545436     0.212029     0.654038    Uiso  ? Al
   Al12       1.0     0.113124     0.427263     0.402357    Uiso  ? Al
   Al13       1.0     0.217774     0.540776     0.155202    Uiso  ? Al
   Al14       1.0     0.775193     0.427542     0.904242    Uiso  ? Al
   Al15       1.0     0.887336     0.534580     0.648688    Uiso  ? Al
   Al16       1.0     0.443461     0.429069     0.405088    Uiso  ? Al
   Al17       1.0     0.556737     0.544536     0.153684    Uiso  ? Al
   Al18       1.0     0.221679     0.535559     0.654307    Uiso  ? Al
   Al19       1.0     0.772690     0.435687     0.398990    Uiso  ? Al
   Al20       1.0     0.894619     0.533304     0.159501    Uiso  ? Al
   Al21       1.0     0.437682     0.439656     0.897902    Uiso  ? Al
   Al22       1.0     0.560127     0.533707     0.653349    Uiso  ? Al
   Al23       1.0     0.116123     0.754321     0.401789    Uiso  ? Al
   Al24       1.0     0.446741     0.758817     0.401732    Uiso  ? Al
   Al25       1.0     0.554483     0.866368     0.158721    Uiso  ? Al
   Al26       1.0     0.113585     0.759598     0.910081    Uiso  ? Al
   Al27       1.0     0.776695     0.757820     0.407612    Uiso  ? Al
   Al28       1.0     0.900829     0.857448     0.161091    Uiso  ? Al
   Al29       1.0     0.444584     0.758016     0.907754    Uiso  ? Al
   Al30       1.0     0.555547     0.871598     0.647543    Uiso  ? Al
   Hf1        1.0     0.554212     0.206030     0.130094    Uiso  ? Hf
   Hf2        1.0     0.778238     0.762577     0.898226    Uiso  ? Hf
   Hf3        1.0     0.219524     0.874221     0.646960    Uiso  ? Hf
   Mg1        1.0     0.115852     0.422790     0.902929    Uiso  ? Mg
   Mg2        1.0     0.223979     0.870651     0.154500    Uiso  ? Mg
   Mg3        1.0     0.887168     0.869801     0.635376    Uiso  ? Mg
   N1         1.0     0.226017     0.205103     0.346846    Uiso  ? N
   N2         1.0     0.112381     0.104734     0.099216    Uiso  ? N
   N3         1.0     0.888708     0.205615     0.888329    Uiso  ? N
   N4         1.0     0.767278     0.114281     0.638969    Uiso  ? N
   N5         1.0     0.550455     0.207821     0.344445    Uiso  ? N
   N6         1.0     0.436561     0.080612     0.089890    Uiso  ? N
   N7         1.0     0.225339     0.191574     0.837836    Uiso  ? N
   N8         1.0     0.103302     0.113249     0.589475    Uiso  ? N
   N9         1.0     0.886862     0.208738     0.378199    Uiso  ? N
   N10        1.0     0.798911     0.083052     0.146522    Uiso  ? N
   N11        1.0     0.548894     0.207766     0.860501    Uiso  ? N
   N12        1.0     0.443320     0.095311     0.595190    Uiso  ? N
   N13        1.0     0.226412     0.535453     0.345102    Uiso  ? N
   N14        1.0     0.114215     0.425617     0.109143    Uiso  ? N
   N15        1.0     0.882028     0.530092     0.836774    Uiso  ? N
   N16        1.0     0.771775     0.435386     0.589383    Uiso  ? N
   N17        1.0     0.553424     0.539314     0.343669    Uiso  ? N
   N18        1.0     0.436379     0.448687     0.089430    Uiso  ? N
   N19        1.0     0.226571     0.548844     0.839899    Uiso  ? N
   N20        1.0     0.110853     0.427909     0.594107    Uiso  ? N
   N21        1.0     0.889653     0.538605     0.348150    Uiso  ? N
   N22        1.0     0.776006     0.433117     0.099465    Uiso  ? N
   N23        1.0     0.556819     0.538712     0.842867    Uiso  ? N
   N24        1.0     0.443979     0.427370     0.595545    Uiso  ? N
   N25        1.0     0.223362     0.872592     0.366088    Uiso  ? N
   N26        1.0     0.107153     0.750721     0.096634    Uiso  ? N
   N27        1.0     0.899856     0.878374     0.848844    Uiso  ? N
   N28        1.0     0.769496     0.751888     0.595505    Uiso  ? N
   N29        1.0     0.555032     0.873151     0.347870    Uiso  ? N
   N30        1.0     0.461768     0.752970     0.092760    Uiso  ? N
   N31        1.0     0.222976     0.872055     0.857014    Uiso  ? N
   N32        1.0     0.120599     0.742532     0.586595    Uiso  ? N
   N33        1.0     0.892103     0.864544     0.354683    Uiso  ? N
   N34        1.0     0.778678     0.759940     0.107380    Uiso  ? N
   N35        1.0     0.539926     0.877944     0.837156    Uiso  ? N
   N36        1.0     0.459133     0.750830     0.591729    Uiso  ? N
