
#======================================================================
# CRYSTAL DATA
#----------------------------------------------------------------------
data_VESTA_phase_1

_chemical_name_common                  'Al   Hf   Mg   N                      '
_cell_length_a                         9.627162
_cell_length_b                         9.645773
_cell_length_c                         10.127578
_cell_angle_alpha                      90.012459
_cell_angle_beta                       89.934296
_cell_angle_gamma                      60.011894
_cell_volume                           814.560048
_space_group_name_H-M_alt              'P 1'
_space_group_IT_number                 1

loop_
_space_group_symop_operation_xyz
   'x, y, z'

loop_
   _atom_site_label
   _atom_site_occupancy
   _atom_site_fract_x
   _atom_site_fract_y
   _atom_site_fract_z
   _atom_site_adp_type
   _atom_site_U_iso_or_equiv
   _atom_site_type_symbol
   Al1        1.0     0.108456     0.098295     0.326282    Uiso  ? Al
   Al2        1.0     0.215522     0.205417     0.078728    Uiso  ? Al
   Al3        1.0     0.781233     0.100035     0.820992    Uiso  ? Al
   Al4        1.0     0.881634     0.215623     0.576360    Uiso  ? Al
   Al5        1.0     0.441108     0.090020     0.332692    Uiso  ? Al
   Al6        1.0     0.106825     0.102366     0.830151    Uiso  ? Al
   Al7        1.0     0.218051     0.214456     0.574608    Uiso  ? Al
   Al8        1.0     0.784867     0.091632     0.328775    Uiso  ? Al
   Al9        1.0     0.892373     0.209428     0.077686    Uiso  ? Al
   Al10       1.0     0.435630     0.095158     0.823134    Uiso  ? Al
   Al11       1.0     0.557356     0.202862     0.576562    Uiso  ? Al
   Al12       1.0     0.108165     0.423386     0.330471    Uiso  ? Al
   Al13       1.0     0.218847     0.544548     0.146177    Uiso  ? Al
   Al14       1.0     0.778511     0.424282     0.825912    Uiso  ? Al
   Al15       1.0     0.891014     0.535877     0.570920    Uiso  ? Al
   Al16       1.0     0.444966     0.428884     0.356893    Uiso  ? Al
   Al17       1.0     0.558633     0.541619     0.076291    Uiso  ? Al
   Al18       1.0     0.218942     0.538514     0.639793    Uiso  ? Al
   Al19       1.0     0.776270     0.427137     0.325395    Uiso  ? Al
   Al20       1.0     0.890242     0.532656     0.082820    Uiso  ? Al
   Al21       1.0     0.448152     0.430142     0.824804    Uiso  ? Al
   Al22       1.0     0.564825     0.534180     0.576997    Uiso  ? Al
   Al23       1.0     0.112075     0.755337     0.388189    Uiso  ? Al
   Al24       1.0     0.448435     0.757837     0.325690    Uiso  ? Al
   Al25       1.0     0.551488     0.868633     0.082197    Uiso  ? Al
   Al26       1.0     0.120647     0.755407     0.894135    Uiso  ? Al
   Al27       1.0     0.778552     0.760598     0.320936    Uiso  ? Al
   Al28       1.0     0.893272     0.871717     0.086558    Uiso  ? Al
   Al29       1.0     0.446405     0.757014     0.828847    Uiso  ? Al
   Al30       1.0     0.560158     0.868281     0.572180    Uiso  ? Al
   Hf1        1.0     0.553609     0.205460     0.083188    Uiso  ? Hf
   Hf2        1.0     0.778827     0.759603     0.834839    Uiso  ? Hf
   Hf3        1.0     0.222173     0.875142     0.602480    Uiso  ? Hf
   Mg1        1.0     0.113106     0.419512     0.833239    Uiso  ? Mg
   Mg2        1.0     0.225646     0.876599     0.093157    Uiso  ? Mg
   Mg3        1.0     0.875565     0.879078     0.572434    Uiso  ? Mg
   N1         1.0     0.222293     0.203964     0.386552    Uiso  ? N
   N2         1.0     0.100807     0.110915     0.140790    Uiso  ? N
   N3         1.0     0.886733     0.208153     0.887477    Uiso  ? N
   N4         1.0     0.771052     0.111042     0.635535    Uiso  ? N
   N5         1.0     0.557328     0.200522     0.380023    Uiso  ? N
   N6         1.0     0.434637     0.085464     0.143461    Uiso  ? N
   N7         1.0     0.229746     0.189491     0.892789    Uiso  ? N
   N8         1.0     0.095902     0.121878     0.639031    Uiso  ? N
   N9         1.0     0.887439     0.207742     0.387165    Uiso  ? N
   N10        1.0     0.792741     0.091401     0.138657    Uiso  ? N
   N11        1.0     0.553532     0.205165     0.874865    Uiso  ? N
   N12        1.0     0.443868     0.091124     0.632078    Uiso  ? N
   N13        1.0     0.221689     0.539168     0.338622    Uiso  ? N
   N14        1.0     0.110347     0.423589     0.136335    Uiso  ? N
   N15        1.0     0.881795     0.528097     0.896864    Uiso  ? N
   N16        1.0     0.779244     0.429829     0.635776    Uiso  ? N
   N17        1.0     0.557985     0.539452     0.388425    Uiso  ? N
   N18        1.0     0.443117     0.440450     0.129488    Uiso  ? N
   N19        1.0     0.227353     0.549337     0.828948    Uiso  ? N
   N20        1.0     0.107641     0.428262     0.620505    Uiso  ? N
   N21        1.0     0.885287     0.539762     0.379426    Uiso  ? N
   N22        1.0     0.775651     0.426479     0.137285    Uiso  ? N
   N23        1.0     0.557965     0.537624     0.883849    Uiso  ? N
   N24        1.0     0.449345     0.424666     0.617922    Uiso  ? N
   N25        1.0     0.225944     0.876123     0.380932    Uiso  ? N
   N26        1.0     0.113307     0.748802     0.083008    Uiso  ? N
   N27        1.0     0.889556     0.888630     0.887859    Uiso  ? N
   N28        1.0     0.772126     0.751653     0.631786    Uiso  ? N
   N29        1.0     0.558007     0.869683     0.384017    Uiso  ? N
   N30        1.0     0.461244     0.750466     0.139810    Uiso  ? N
   N31        1.0     0.220393     0.874328     0.845219    Uiso  ? N
   N32        1.0     0.115043     0.743742     0.577476    Uiso  ? N
   N33        1.0     0.887370     0.871739     0.363325    Uiso  ? N
   N34        1.0     0.776598     0.762092     0.126759    Uiso  ? N
   N35        1.0     0.538772     0.880218     0.891642    Uiso  ? N
   N36        1.0     0.467555     0.748303     0.638797    Uiso  ? N
