
#======================================================================
# CRYSTAL DATA
#----------------------------------------------------------------------
data_VESTA_phase_1

_chemical_name_common                  'Al   Hf   Mg   N                      '
_cell_length_a                         9.645337
_cell_length_b                         9.620720
_cell_length_c                         10.300979
_cell_angle_alpha                      89.966484
_cell_angle_beta                       89.942307
_cell_angle_gamma                      59.864700
_cell_volume                           826.685194
_space_group_name_H-M_alt              'P 1'
_space_group_IT_number                 1

loop_
_space_group_symop_operation_xyz
   'x, y, z'

loop_
   _atom_site_label
   _atom_site_occupancy
   _atom_site_fract_x
   _atom_site_fract_y
   _atom_site_fract_z
   _atom_site_adp_type
   _atom_site_U_iso_or_equiv
   _atom_site_type_symbol
   Al1        1.0     0.107536     0.101019     0.335466    Uiso  ? Al
   Al2        1.0     0.217828     0.200678     0.084693    Uiso  ? Al
   Al3        1.0     0.777300     0.104728     0.824288    Uiso  ? Al
   Al4        1.0     0.881151     0.217085     0.582017    Uiso  ? Al
   Al5        1.0     0.439574     0.093743     0.341608    Uiso  ? Al
   Al6        1.0     0.107350     0.103394     0.837650    Uiso  ? Al
   Al7        1.0     0.216399     0.217336     0.581067    Uiso  ? Al
   Al8        1.0     0.783158     0.094203     0.341773    Uiso  ? Al
   Al9        1.0     0.895210     0.205696     0.084443    Uiso  ? Al
   Al10       1.0     0.433654     0.102292     0.825037    Uiso  ? Al
   Al11       1.0     0.557100     0.202985     0.579065    Uiso  ? Al
   Al12       1.0     0.116008     0.421804     0.335740    Uiso  ? Al
   Al13       1.0     0.220426     0.544034     0.147707    Uiso  ? Al
   Al14       1.0     0.777502     0.420726     0.833912    Uiso  ? Al
   Al15       1.0     0.890065     0.539141     0.646814    Uiso  ? Al
   Al16       1.0     0.439732     0.435847     0.399907    Uiso  ? Al
   Al17       1.0     0.551799     0.545112     0.148460    Uiso  ? Al
   Al18       1.0     0.226271     0.535144     0.652180    Uiso  ? Al
   Al19       1.0     0.779204     0.421707     0.333051    Uiso  ? Al
   Al20       1.0     0.889952     0.537371     0.149645    Uiso  ? Al
   Al21       1.0     0.437930     0.441667     0.896806    Uiso  ? Al
   Al22       1.0     0.554471     0.533655     0.650040    Uiso  ? Al
   Al23       1.0     0.113635     0.753670     0.400610    Uiso  ? Al
   Al24       1.0     0.449764     0.755492     0.401363    Uiso  ? Al
   Al25       1.0     0.556215     0.860008     0.161772    Uiso  ? Al
   Al26       1.0     0.113128     0.763488     0.902446    Uiso  ? Al
   Al27       1.0     0.780052     0.753966     0.405552    Uiso  ? Al
   Al28       1.0     0.900931     0.860650     0.160776    Uiso  ? Al
   Al29       1.0     0.441739     0.761565     0.901207    Uiso  ? Al
   Al30       1.0     0.559938     0.865620     0.643611    Uiso  ? Al
   Hf1        1.0     0.559373     0.197529     0.094180    Uiso  ? Hf
   Hf2        1.0     0.773933     0.769179     0.901680    Uiso  ? Hf
   Hf3        1.0     0.221847     0.871462     0.630357    Uiso  ? Hf
   Mg1        1.0     0.119507     0.420646     0.850615    Uiso  ? Mg
   Mg2        1.0     0.225222     0.867280     0.147447    Uiso  ? Mg
   Mg3        1.0     0.887515     0.870187     0.637465    Uiso  ? Mg
   N1         1.0     0.222296     0.204873     0.395621    Uiso  ? N
   N2         1.0     0.101027     0.111718     0.151584    Uiso  ? N
   N3         1.0     0.887867     0.205661     0.896932    Uiso  ? N
   N4         1.0     0.765862     0.118668     0.640160    Uiso  ? N
   N5         1.0     0.558083     0.199969     0.383603    Uiso  ? N
   N6         1.0     0.432578     0.088733     0.152498    Uiso  ? N
   N7         1.0     0.232732     0.185822     0.901784    Uiso  ? N
   N8         1.0     0.096213     0.122264     0.646186    Uiso  ? N
   N9         1.0     0.888063     0.206915     0.396855    Uiso  ? N
   N10        1.0     0.795559     0.090220     0.151860    Uiso  ? N
   N11        1.0     0.556727     0.199230     0.888584    Uiso  ? N
   N12        1.0     0.439940     0.100991     0.635520    Uiso  ? N
   N13        1.0     0.227893     0.538912     0.335612    Uiso  ? N
   N14        1.0     0.116823     0.420868     0.137233    Uiso  ? N
   N15        1.0     0.880196     0.537151     0.849784    Uiso  ? N
   N16        1.0     0.777823     0.426416     0.641309    Uiso  ? N
   N17        1.0     0.549319     0.540468     0.338259    Uiso  ? N
   N18        1.0     0.435980     0.446765     0.087388    Uiso  ? N
   N19        1.0     0.231211     0.551415     0.837203    Uiso  ? N
   N20        1.0     0.111839     0.429061     0.630436    Uiso  ? N
   N21        1.0     0.888811     0.538915     0.343207    Uiso  ? N
   N22        1.0     0.777938     0.422483     0.140017    Uiso  ? N
   N23        1.0     0.550052     0.541328     0.839412    Uiso  ? N
   N24        1.0     0.441872     0.432253     0.586568    Uiso  ? N
   N25        1.0     0.222221     0.874393     0.372851    Uiso  ? N
   N26        1.0     0.104019     0.754130     0.087664    Uiso  ? N
   N27        1.0     0.897949     0.880640     0.844892    Uiso  ? N
   N28        1.0     0.771252     0.752896     0.589310    Uiso  ? N
   N29        1.0     0.559581     0.863013     0.348013    Uiso  ? N
   N30        1.0     0.460672     0.754476     0.085100    Uiso  ? N
   N31        1.0     0.223269     0.871331     0.842489    Uiso  ? N
   N32        1.0     0.117486     0.741509     0.581704    Uiso  ? N
   N33        1.0     0.893260     0.863160     0.349166    Uiso  ? N
   N34        1.0     0.775430     0.765853     0.106724    Uiso  ? N
   N35        1.0     0.541463     0.874080     0.831434    Uiso  ? N
   N36        1.0     0.464022     0.747262     0.586407    Uiso  ? N
