
#======================================================================
# CRYSTAL DATA
#----------------------------------------------------------------------
data_VESTA_phase_1

_chemical_name_common                  'Al   Hf   Mg   N                      '
_cell_length_a                         9.625284
_cell_length_b                         9.643409
_cell_length_c                         10.186427
_cell_angle_alpha                      89.796997
_cell_angle_beta                       89.624031
_cell_angle_gamma                      59.966751
_cell_volume                           818.543340
_space_group_name_H-M_alt              'P 1'
_space_group_IT_number                 1

loop_
_space_group_symop_operation_xyz
   'x, y, z'

loop_
   _atom_site_label
   _atom_site_occupancy
   _atom_site_fract_x
   _atom_site_fract_y
   _atom_site_fract_z
   _atom_site_adp_type
   _atom_site_U_iso_or_equiv
   _atom_site_type_symbol
   Al1        1.0     0.105165     0.096657     0.331396    Uiso  ? Al
   Al2        1.0     0.216472     0.211949     0.151501    Uiso  ? Al
   Al3        1.0     0.773747     0.106960     0.826928    Uiso  ? Al
   Al4        1.0     0.884041     0.210339     0.579552    Uiso  ? Al
   Al5        1.0     0.438057     0.089645     0.396873    Uiso  ? Al
   Al6        1.0     0.107037     0.099672     0.844765    Uiso  ? Al
   Al7        1.0     0.223481     0.212617     0.651533    Uiso  ? Al
   Al8        1.0     0.785182     0.093271     0.337913    Uiso  ? Al
   Al9        1.0     0.896537     0.200894     0.083045    Uiso  ? Al
   Al10       1.0     0.437113     0.092332     0.899510    Uiso  ? Al
   Al11       1.0     0.556582     0.207277     0.579674    Uiso  ? Al
   Al12       1.0     0.112560     0.426370     0.399269    Uiso  ? Al
   Al13       1.0     0.214308     0.543272     0.150228    Uiso  ? Al
   Al14       1.0     0.774341     0.430464     0.899463    Uiso  ? Al
   Al15       1.0     0.888042     0.534247     0.643648    Uiso  ? Al
   Al16       1.0     0.438537     0.438741     0.394427    Uiso  ? Al
   Al17       1.0     0.558879     0.544315     0.148205    Uiso  ? Al
   Al18       1.0     0.223987     0.533546     0.649146    Uiso  ? Al
   Al19       1.0     0.773547     0.434728     0.397097    Uiso  ? Al
   Al20       1.0     0.893377     0.532263     0.154877    Uiso  ? Al
   Al21       1.0     0.439320     0.438626     0.897274    Uiso  ? Al
   Al22       1.0     0.562338     0.531168     0.648138    Uiso  ? Al
   Al23       1.0     0.112665     0.754626     0.397709    Uiso  ? Al
   Al24       1.0     0.448315     0.758226     0.397443    Uiso  ? Al
   Al25       1.0     0.554424     0.865224     0.154025    Uiso  ? Al
   Al26       1.0     0.113717     0.760565     0.902057    Uiso  ? Al
   Al27       1.0     0.777152     0.757192     0.402914    Uiso  ? Al
   Al28       1.0     0.899078     0.859245     0.156267    Uiso  ? Al
   Al29       1.0     0.445546     0.758227     0.900281    Uiso  ? Al
   Al30       1.0     0.557362     0.871314     0.643270    Uiso  ? Al
   Hf1        1.0     0.554650     0.206705     0.114345    Uiso  ? Hf
   Hf2        1.0     0.779869     0.762470     0.894485    Uiso  ? Hf
   Hf3        1.0     0.222246     0.868940     0.632514    Uiso  ? Hf
   Mg1        1.0     0.116535     0.425730     0.898863    Uiso  ? Mg
   Mg2        1.0     0.227654     0.863267     0.141405    Uiso  ? Mg
   Mg3        1.0     0.885752     0.872135     0.634130    Uiso  ? Mg
   N1         1.0     0.223781     0.207950     0.343381    Uiso  ? N
   N2         1.0     0.102419     0.106099     0.140980    Uiso  ? N
   N3         1.0     0.889381     0.202253     0.893953    Uiso  ? N
   N4         1.0     0.763237     0.119652     0.639194    Uiso  ? N
   N5         1.0     0.554990     0.205476     0.364377    Uiso  ? N
   N6         1.0     0.433378     0.080277     0.091961    Uiso  ? N
   N7         1.0     0.232257     0.196457     0.837865    Uiso  ? N
   N8         1.0     0.094156     0.115643     0.639271    Uiso  ? N
   N9         1.0     0.889308     0.203387     0.390374    Uiso  ? N
   N10        1.0     0.797294     0.087158     0.147776    Uiso  ? N
   N11        1.0     0.558689     0.203944     0.896755    Uiso  ? N
   N12        1.0     0.442973     0.092118     0.586058    Uiso  ? N
   N13        1.0     0.222474     0.537497     0.338268    Uiso  ? N
   N14        1.0     0.111995     0.427863     0.102385    Uiso  ? N
   N15        1.0     0.882980     0.529948     0.830767    Uiso  ? N
   N16        1.0     0.773335     0.434495     0.585389    Uiso  ? N
   N17        1.0     0.555538     0.540302     0.336636    Uiso  ? N
   N18        1.0     0.432638     0.453796     0.090618    Uiso  ? N
   N19        1.0     0.229886     0.547904     0.833875    Uiso  ? N
   N20        1.0     0.112217     0.426945     0.589280    Uiso  ? N
   N21        1.0     0.889464     0.537381     0.342809    Uiso  ? N
   N22        1.0     0.776552     0.432049     0.091839    Uiso  ? N
   N23        1.0     0.557729     0.536833     0.837106    Uiso  ? N
   N24        1.0     0.442483     0.432505     0.584210    Uiso  ? N
   N25        1.0     0.223117     0.871466     0.366380    Uiso  ? N
   N26        1.0     0.103828     0.752177     0.087901    Uiso  ? N
   N27        1.0     0.898331     0.880967     0.843505    Uiso  ? N
   N28        1.0     0.770781     0.752429     0.589577    Uiso  ? N
   N29        1.0     0.555610     0.870543     0.341235    Uiso  ? N
   N30        1.0     0.463474     0.752172     0.084427    Uiso  ? N
   N31        1.0     0.225922     0.869249     0.847345    Uiso  ? N
   N32        1.0     0.116848     0.740843     0.580906    Uiso  ? N
   N33        1.0     0.891385     0.864104     0.348036    Uiso  ? N
   N34        1.0     0.777918     0.760850     0.102221    Uiso  ? N
   N35        1.0     0.541745     0.879333     0.832455    Uiso  ? N
   N36        1.0     0.464053     0.748725     0.585975    Uiso  ? N
