
#======================================================================
# CRYSTAL DATA
#----------------------------------------------------------------------
data_VESTA_phase_1

_chemical_name_common                  'Al   Hf   Mg   N                      '
_cell_length_a                         9.635965
_cell_length_b                         9.620392
_cell_length_c                         10.285302
_cell_angle_alpha                      90.011276
_cell_angle_beta                       89.971794
_cell_angle_gamma                      59.907715
_cell_volume                           824.956321
_space_group_name_H-M_alt              'P 1'
_space_group_IT_number                 1

loop_
_space_group_symop_operation_xyz
   'x, y, z'

loop_
   _atom_site_label
   _atom_site_occupancy
   _atom_site_fract_x
   _atom_site_fract_y
   _atom_site_fract_z
   _atom_site_adp_type
   _atom_site_U_iso_or_equiv
   _atom_site_type_symbol
   Al1        1.0     0.107280     0.101443     0.335906    Uiso  ? Al
   Al2        1.0     0.217852     0.200694     0.084441    Uiso  ? Al
   Al3        1.0     0.777665     0.104746     0.824695    Uiso  ? Al
   Al4        1.0     0.881535     0.217186     0.583071    Uiso  ? Al
   Al5        1.0     0.438420     0.094948     0.341537    Uiso  ? Al
   Al6        1.0     0.107546     0.102812     0.838145    Uiso  ? Al
   Al7        1.0     0.217077     0.216631     0.581314    Uiso  ? Al
   Al8        1.0     0.783153     0.095315     0.341976    Uiso  ? Al
   Al9        1.0     0.895389     0.204750     0.084546    Uiso  ? Al
   Al10       1.0     0.433416     0.102429     0.825357    Uiso  ? Al
   Al11       1.0     0.557157     0.203180     0.579010    Uiso  ? Al
   Al12       1.0     0.112202     0.423189     0.332271    Uiso  ? Al
   Al13       1.0     0.220112     0.544080     0.147999    Uiso  ? Al
   Al14       1.0     0.780967     0.423197     0.836585    Uiso  ? Al
   Al15       1.0     0.892878     0.533678     0.597279    Uiso  ? Al
   Al16       1.0     0.439550     0.436113     0.399764    Uiso  ? Al
   Al17       1.0     0.551695     0.544994     0.149237    Uiso  ? Al
   Al18       1.0     0.226281     0.535246     0.652699    Uiso  ? Al
   Al19       1.0     0.781240     0.423291     0.331463    Uiso  ? Al
   Al20       1.0     0.891067     0.531335     0.107841    Uiso  ? Al
   Al21       1.0     0.438217     0.441142     0.896656    Uiso  ? Al
   Al22       1.0     0.555689     0.533492     0.651274    Uiso  ? Al
   Al23       1.0     0.113785     0.753406     0.400407    Uiso  ? Al
   Al24       1.0     0.449728     0.755293     0.401258    Uiso  ? Al
   Al25       1.0     0.555898     0.860500     0.161850    Uiso  ? Al
   Al26       1.0     0.113511     0.762880     0.902388    Uiso  ? Al
   Al27       1.0     0.777477     0.759007     0.402910    Uiso  ? Al
   Al28       1.0     0.900824     0.860996     0.160986    Uiso  ? Al
   Al29       1.0     0.442166     0.760691     0.901309    Uiso  ? Al
   Al30       1.0     0.559291     0.866069     0.643772    Uiso  ? Al
   Hf1        1.0     0.559507     0.197313     0.094394    Uiso  ? Hf
   Hf2        1.0     0.772856     0.770996     0.901535    Uiso  ? Hf
   Hf3        1.0     0.222169     0.870982     0.630154    Uiso  ? Hf
   Mg1        1.0     0.114093     0.422366     0.846367    Uiso  ? Mg
   Mg2        1.0     0.225302     0.867216     0.147414    Uiso  ? Mg
   Mg3        1.0     0.887946     0.870583     0.637955    Uiso  ? Mg
   N1         1.0     0.221574     0.206109     0.395812    Uiso  ? N
   N2         1.0     0.101255     0.111435     0.151535    Uiso  ? N
   N3         1.0     0.887896     0.205338     0.896806    Uiso  ? N
   N4         1.0     0.765783     0.119517     0.640380    Uiso  ? N
   N5         1.0     0.557974     0.200181     0.383561    Uiso  ? N
   N6         1.0     0.431854     0.089299     0.152413    Uiso  ? N
   N7         1.0     0.232304     0.186754     0.901331    Uiso  ? N
   N8         1.0     0.096787     0.121637     0.646220    Uiso  ? N
   N9         1.0     0.887619     0.208075     0.397624    Uiso  ? N
   N10        1.0     0.795704     0.090469     0.152061    Uiso  ? N
   N11        1.0     0.557094     0.198611     0.888629    Uiso  ? N
   N12        1.0     0.439857     0.101299     0.635650    Uiso  ? N
   N13        1.0     0.227368     0.538813     0.335766    Uiso  ? N
   N14        1.0     0.115101     0.421014     0.139978    Uiso  ? N
   N15        1.0     0.881776     0.529387     0.900288    Uiso  ? N
   N16        1.0     0.781802     0.428381     0.645436    Uiso  ? N
   N17        1.0     0.549568     0.540561     0.338591    Uiso  ? N
   N18        1.0     0.435923     0.446494     0.087479    Uiso  ? N
   N19        1.0     0.230998     0.550524     0.837448    Uiso  ? N
   N20        1.0     0.109961     0.429024     0.633894    Uiso  ? N
   N21        1.0     0.890334     0.535172     0.369824    Uiso  ? N
   N22        1.0     0.778685     0.421502     0.142999    Uiso  ? N
   N23        1.0     0.551380     0.540392     0.839553    Uiso  ? N
   N24        1.0     0.442382     0.432277     0.586950    Uiso  ? N
   N25        1.0     0.222042     0.874664     0.373265    Uiso  ? N
   N26        1.0     0.104006     0.753885     0.087759    Uiso  ? N
   N27        1.0     0.899007     0.880340     0.844535    Uiso  ? N
   N28        1.0     0.769688     0.756522     0.589661    Uiso  ? N
   N29        1.0     0.558073     0.864350     0.348040    Uiso  ? N
   N30        1.0     0.461033     0.753994     0.085319    Uiso  ? N
   N31        1.0     0.223748     0.870754     0.842532    Uiso  ? N
   N32        1.0     0.117560     0.740888     0.581709    Uiso  ? N
   N33        1.0     0.893366     0.864353     0.349266    Uiso  ? N
   N34        1.0     0.773690     0.769544     0.108076    Uiso  ? N
   N35        1.0     0.540905     0.873679     0.831159    Uiso  ? N
   N36        1.0     0.464709     0.746521     0.586504    Uiso  ? N
