
#======================================================================
# CRYSTAL DATA
#----------------------------------------------------------------------
data_VESTA_phase_1

_chemical_name_common                  'Al   Hf   Mg   N                      '
_cell_length_a                         9.613409
_cell_length_b                         9.645025
_cell_length_c                         10.069196
_cell_angle_alpha                      89.728043
_cell_angle_beta                       89.828949
_cell_angle_gamma                      60.098301
_cell_volume                           809.339133
_space_group_name_H-M_alt              'P 1'
_space_group_IT_number                 1

loop_
_space_group_symop_operation_xyz
   'x, y, z'

loop_
   _atom_site_label
   _atom_site_occupancy
   _atom_site_fract_x
   _atom_site_fract_y
   _atom_site_fract_z
   _atom_site_adp_type
   _atom_site_U_iso_or_equiv
   _atom_site_type_symbol
   Al1        1.0     0.108450     0.099831     0.318420    Uiso  ? Al
   Al2        1.0     0.216154     0.206161     0.069713    Uiso  ? Al
   Al3        1.0     0.780249     0.100723     0.813982    Uiso  ? Al
   Al4        1.0     0.881199     0.215270     0.569687    Uiso  ? Al
   Al5        1.0     0.441608     0.090645     0.326130    Uiso  ? Al
   Al6        1.0     0.107061     0.103063     0.823034    Uiso  ? Al
   Al7        1.0     0.217594     0.212693     0.567410    Uiso  ? Al
   Al8        1.0     0.782851     0.093846     0.323163    Uiso  ? Al
   Al9        1.0     0.892142     0.209971     0.070166    Uiso  ? Al
   Al10       1.0     0.436132     0.095067     0.815163    Uiso  ? Al
   Al11       1.0     0.554817     0.206691     0.568641    Uiso  ? Al
   Al12       1.0     0.112366     0.424874     0.319256    Uiso  ? Al
   Al13       1.0     0.221522     0.537261     0.073477    Uiso  ? Al
   Al14       1.0     0.777029     0.424565     0.818867    Uiso  ? Al
   Al15       1.0     0.890794     0.535354     0.564063    Uiso  ? Al
   Al16       1.0     0.444742     0.430994     0.323763    Uiso  ? Al
   Al17       1.0     0.558433     0.541713     0.069714    Uiso  ? Al
   Al18       1.0     0.223366     0.528573     0.563809    Uiso  ? Al
   Al19       1.0     0.777035     0.427074     0.319387    Uiso  ? Al
   Al20       1.0     0.890788     0.532143     0.075282    Uiso  ? Al
   Al21       1.0     0.440311     0.433183     0.814131    Uiso  ? Al
   Al22       1.0     0.561490     0.532646     0.569663    Uiso  ? Al
   Al23       1.0     0.112243     0.758352     0.354980    Uiso  ? Al
   Al24       1.0     0.449712     0.757176     0.318524    Uiso  ? Al
   Al25       1.0     0.552403     0.868139     0.074361    Uiso  ? Al
   Al26       1.0     0.117588     0.762433     0.886899    Uiso  ? Al
   Al27       1.0     0.778186     0.759593     0.314165    Uiso  ? Al
   Al28       1.0     0.891804     0.873304     0.085196    Uiso  ? Al
   Al29       1.0     0.447222     0.755521     0.822366    Uiso  ? Al
   Al30       1.0     0.559723     0.867703     0.565937    Uiso  ? Al
   Hf1        1.0     0.553638     0.205865     0.075530    Uiso  ? Hf
   Hf2        1.0     0.780545     0.759434     0.828214    Uiso  ? Hf
   Hf3        1.0     0.220802     0.873423     0.592159    Uiso  ? Hf
   Mg1        1.0     0.116548     0.423282     0.819613    Uiso  ? Mg
   Mg2        1.0     0.227159     0.879291     0.084213    Uiso  ? Mg
   Mg3        1.0     0.877616     0.877953     0.563500    Uiso  ? Mg
   N1         1.0     0.222288     0.204420     0.378126    Uiso  ? N
   N2         1.0     0.100647     0.112969     0.132506    Uiso  ? N
   N3         1.0     0.886523     0.208094     0.879730    Uiso  ? N
   N4         1.0     0.769230     0.111143     0.627299    Uiso  ? N
   N5         1.0     0.555765     0.204336     0.371348    Uiso  ? N
   N6         1.0     0.436103     0.084779     0.135210    Uiso  ? N
   N7         1.0     0.229468     0.191661     0.883308    Uiso  ? N
   N8         1.0     0.095375     0.120447     0.631785    Uiso  ? N
   N9         1.0     0.888127     0.207412     0.379844    Uiso  ? N
   N10        1.0     0.790618     0.093709     0.132158    Uiso  ? N
   N11        1.0     0.553371     0.205040     0.868029    Uiso  ? N
   N12        1.0     0.443779     0.091119     0.623346    Uiso  ? N
   N13        1.0     0.226518     0.531039     0.370219    Uiso  ? N
   N14        1.0     0.113550     0.425089     0.128189    Uiso  ? N
   N15        1.0     0.883204     0.527064     0.888081    Uiso  ? N
   N16        1.0     0.777457     0.429683     0.627635    Uiso  ? N
   N17        1.0     0.556906     0.537700     0.380176    Uiso  ? N
   N18        1.0     0.440554     0.441769     0.133564    Uiso  ? N
   N19        1.0     0.232996     0.539864     0.882871    Uiso  ? N
   N20        1.0     0.109456     0.427474     0.613893    Uiso  ? N
   N21        1.0     0.887690     0.538774     0.371162    Uiso  ? N
   N22        1.0     0.775701     0.426269     0.130114    Uiso  ? N
   N23        1.0     0.556433     0.535667     0.877735    Uiso  ? N
   N24        1.0     0.443752     0.426697     0.623327    Uiso  ? N
   N25        1.0     0.226118     0.875806     0.371233    Uiso  ? N
   N26        1.0     0.110394     0.755660     0.098613    Uiso  ? N
   N27        1.0     0.890670     0.889173     0.885018    Uiso  ? N
   N28        1.0     0.772295     0.751091     0.624315    Uiso  ? N
   N29        1.0     0.558031     0.869646     0.376774    Uiso  ? N
   N30        1.0     0.462140     0.749945     0.132126    Uiso  ? N
   N31        1.0     0.222312     0.875306     0.845046    Uiso  ? N
   N32        1.0     0.113019     0.744933     0.584890    Uiso  ? N
   N33        1.0     0.886165     0.872432     0.354772    Uiso  ? N
   N34        1.0     0.776613     0.761059     0.119226    Uiso  ? N
   N35        1.0     0.539905     0.879472     0.883137    Uiso  ? N
   N36        1.0     0.466502     0.746789     0.631405    Uiso  ? N
