
#======================================================================
# CRYSTAL DATA
#----------------------------------------------------------------------
data_VESTA_phase_1

_chemical_name_common                  'Al   Hf   Mg   N                      '
_cell_length_a                         9.626950
_cell_length_b                         9.642653
_cell_length_c                         10.159153
_cell_angle_alpha                      89.855034
_cell_angle_beta                       89.599846
_cell_angle_gamma                      59.987614
_cell_volume                           816.598053
_space_group_name_H-M_alt              'P 1'
_space_group_IT_number                 1

loop_
_space_group_symop_operation_xyz
   'x, y, z'

loop_
   _atom_site_label
   _atom_site_occupancy
   _atom_site_fract_x
   _atom_site_fract_y
   _atom_site_fract_z
   _atom_site_adp_type
   _atom_site_U_iso_or_equiv
   _atom_site_type_symbol
   Al1        1.0     0.109332     0.094774     0.356414    Uiso  ? Al
   Al2        1.0     0.216122     0.211321     0.150123    Uiso  ? Al
   Al3        1.0     0.775516     0.107036     0.826023    Uiso  ? Al
   Al4        1.0     0.884160     0.210695     0.577347    Uiso  ? Al
   Al5        1.0     0.438042     0.089791     0.396790    Uiso  ? Al
   Al6        1.0     0.116704     0.094192     0.899294    Uiso  ? Al
   Al7        1.0     0.220312     0.209959     0.651820    Uiso  ? Al
   Al8        1.0     0.783859     0.093069     0.337488    Uiso  ? Al
   Al9        1.0     0.890324     0.204597     0.085673    Uiso  ? Al
   Al10       1.0     0.437337     0.092676     0.897709    Uiso  ? Al
   Al11       1.0     0.556241     0.207452     0.580706    Uiso  ? Al
   Al12       1.0     0.112025     0.426693     0.399330    Uiso  ? Al
   Al13       1.0     0.214217     0.543018     0.150302    Uiso  ? Al
   Al14       1.0     0.774952     0.429665     0.898574    Uiso  ? Al
   Al15       1.0     0.888183     0.534028     0.643402    Uiso  ? Al
   Al16       1.0     0.438343     0.438649     0.394517    Uiso  ? Al
   Al17       1.0     0.558013     0.544972     0.148529    Uiso  ? Al
   Al18       1.0     0.223918     0.534417     0.648504    Uiso  ? Al
   Al19       1.0     0.772364     0.436097     0.395796    Uiso  ? Al
   Al20       1.0     0.893380     0.532981     0.154476    Uiso  ? Al
   Al21       1.0     0.439504     0.438578     0.896743    Uiso  ? Al
   Al22       1.0     0.561404     0.532202     0.647522    Uiso  ? Al
   Al23       1.0     0.113254     0.755038     0.397648    Uiso  ? Al
   Al24       1.0     0.446590     0.758979     0.397564    Uiso  ? Al
   Al25       1.0     0.554482     0.865290     0.153971    Uiso  ? Al
   Al26       1.0     0.113314     0.759848     0.903314    Uiso  ? Al
   Al27       1.0     0.776819     0.757462     0.402987    Uiso  ? Al
   Al28       1.0     0.899080     0.858702     0.156400    Uiso  ? Al
   Al29       1.0     0.447002     0.757102     0.901319    Uiso  ? Al
   Al30       1.0     0.556546     0.871834     0.642662    Uiso  ? Al
   Hf1        1.0     0.554151     0.206678     0.113880    Uiso  ? Hf
   Hf2        1.0     0.779732     0.762940     0.893756    Uiso  ? Hf
   Hf3        1.0     0.220053     0.873342     0.641237    Uiso  ? Hf
   Mg1        1.0     0.116633     0.425115     0.897581    Uiso  ? Mg
   Mg2        1.0     0.227639     0.862869     0.144109    Uiso  ? Mg
   Mg3        1.0     0.886465     0.871814     0.633008    Uiso  ? Mg
   N1         1.0     0.222850     0.207125     0.339711    Uiso  ? N
   N2         1.0     0.108041     0.104174     0.109546    Uiso  ? N
   N3         1.0     0.888543     0.202943     0.893215    Uiso  ? N
   N4         1.0     0.764339     0.119286     0.637363    Uiso  ? N
   N5         1.0     0.553854     0.205774     0.363322    Uiso  ? N
   N6         1.0     0.433863     0.080111     0.091322    Uiso  ? N
   N7         1.0     0.229913     0.193033     0.837914    Uiso  ? N
   N8         1.0     0.102144     0.112380     0.603569    Uiso  ? N
   N9         1.0     0.886077     0.206262     0.383574    Uiso  ? N
   N10        1.0     0.796742     0.086222     0.147398    Uiso  ? N
   N11        1.0     0.558678     0.204009     0.895214    Uiso  ? N
   N12        1.0     0.442552     0.093000     0.586384    Uiso  ? N
   N13        1.0     0.222312     0.537078     0.338773    Uiso  ? N
   N14        1.0     0.111995     0.427819     0.102137    Uiso  ? N
   N15        1.0     0.882843     0.530269     0.830857    Uiso  ? N
   N16        1.0     0.773026     0.434541     0.584762    Uiso  ? N
   N17        1.0     0.554527     0.541002     0.337079    Uiso  ? N
   N18        1.0     0.432551     0.453766     0.090508    Uiso  ? N
   N19        1.0     0.229971     0.547997     0.833783    Uiso  ? N
   N20        1.0     0.112599     0.426652     0.589871    Uiso  ? N
   N21        1.0     0.889404     0.537820     0.342793    Uiso  ? N
   N22        1.0     0.775630     0.433273     0.092698    Uiso  ? N
   N23        1.0     0.557781     0.537003     0.836941    Uiso  ? N
   N24        1.0     0.442703     0.432349     0.584370    Uiso  ? N
   N25        1.0     0.223666     0.869656     0.357845    Uiso  ? N
   N26        1.0     0.103610     0.751723     0.088721    Uiso  ? N
   N27        1.0     0.898878     0.880905     0.843039    Uiso  ? N
   N28        1.0     0.770488     0.752381     0.589935    Uiso  ? N
   N29        1.0     0.555197     0.870716     0.341631    Uiso  ? N
   N30        1.0     0.463795     0.752097     0.085046    Uiso  ? N
   N31        1.0     0.225136     0.870899     0.853007    Uiso  ? N
   N32        1.0     0.118570     0.742804     0.581065    Uiso  ? N
   N33        1.0     0.891236     0.864269     0.348636    Uiso  ? N
   N34        1.0     0.777824     0.760906     0.102101    Uiso  ? N
   N35        1.0     0.541583     0.879154     0.832249    Uiso  ? N
   N36        1.0     0.460848     0.750738     0.586362    Uiso  ? N
