
#======================================================================
# CRYSTAL DATA
#----------------------------------------------------------------------
data_VESTA_phase_1

_chemical_name_common                  'Al   Hf   Mg   N                      '
_cell_length_a                         9.629244
_cell_length_b                         9.619046
_cell_length_c                         10.297297
_cell_angle_alpha                      89.931076
_cell_angle_beta                       89.882935
_cell_angle_gamma                      59.915760
_cell_volume                           825.292409
_space_group_name_H-M_alt              'P 1'
_space_group_IT_number                 1

loop_
_space_group_symop_operation_xyz
   'x, y, z'

loop_
   _atom_site_label
   _atom_site_occupancy
   _atom_site_fract_x
   _atom_site_fract_y
   _atom_site_fract_z
   _atom_site_adp_type
   _atom_site_U_iso_or_equiv
   _atom_site_type_symbol
   Al1        1.0     0.107921     0.100568     0.334122    Uiso  ? Al
   Al2        1.0     0.218709     0.199341     0.086075    Uiso  ? Al
   Al3        1.0     0.776510     0.105730     0.824688    Uiso  ? Al
   Al4        1.0     0.880697     0.216795     0.581155    Uiso  ? Al
   Al5        1.0     0.439801     0.093133     0.340044    Uiso  ? Al
   Al6        1.0     0.106993     0.104131     0.838022    Uiso  ? Al
   Al7        1.0     0.219224     0.211689     0.581077    Uiso  ? Al
   Al8        1.0     0.783211     0.093536     0.340774    Uiso  ? Al
   Al9        1.0     0.894814     0.206893     0.084474    Uiso  ? Al
   Al10       1.0     0.433617     0.102933     0.825523    Uiso  ? Al
   Al11       1.0     0.557022     0.203162     0.578923    Uiso  ? Al
   Al12       1.0     0.111985     0.430083     0.384445    Uiso  ? Al
   Al13       1.0     0.217959     0.541282     0.149999    Uiso  ? Al
   Al14       1.0     0.778436     0.420976     0.829973    Uiso  ? Al
   Al15       1.0     0.891610     0.538786     0.645665    Uiso  ? Al
   Al16       1.0     0.439859     0.435532     0.399575    Uiso  ? Al
   Al17       1.0     0.552576     0.544827     0.148334    Uiso  ? Al
   Al18       1.0     0.224065     0.534346     0.650258    Uiso  ? Al
   Al19       1.0     0.779094     0.421165     0.334127    Uiso  ? Al
   Al20       1.0     0.897053     0.533799     0.155902    Uiso  ? Al
   Al21       1.0     0.437045     0.442516     0.895937    Uiso  ? Al
   Al22       1.0     0.553610     0.534260     0.648553    Uiso  ? Al
   Al23       1.0     0.113357     0.754866     0.400316    Uiso  ? Al
   Al24       1.0     0.449543     0.755732     0.401008    Uiso  ? Al
   Al25       1.0     0.558147     0.858316     0.160903    Uiso  ? Al
   Al26       1.0     0.112778     0.763161     0.902466    Uiso  ? Al
   Al27       1.0     0.778928     0.755154     0.405978    Uiso  ? Al
   Al28       1.0     0.901090     0.859814     0.159555    Uiso  ? Al
   Al29       1.0     0.441497     0.762146     0.901278    Uiso  ? Al
   Al30       1.0     0.560069     0.865644     0.644185    Uiso  ? Al
   Hf1        1.0     0.558804     0.198567     0.093689    Uiso  ? Hf
   Hf2        1.0     0.775624     0.766080     0.900739    Uiso  ? Hf
   Hf3        1.0     0.221268     0.872074     0.630625    Uiso  ? Hf
   Mg1        1.0     0.116969     0.427313     0.889539    Uiso  ? Mg
   Mg2        1.0     0.225588     0.866114     0.147062    Uiso  ? Mg
   Mg3        1.0     0.886758     0.870905     0.637935    Uiso  ? Mg
   N1         1.0     0.224422     0.200125     0.395144    Uiso  ? N
   N2         1.0     0.101173     0.110463     0.150790    Uiso  ? N
   N3         1.0     0.887014     0.207595     0.896530    Uiso  ? N
   N4         1.0     0.765676     0.118617     0.640498    Uiso  ? N
   N5         1.0     0.558034     0.199692     0.383538    Uiso  ? N
   N6         1.0     0.434135     0.087216     0.151626    Uiso  ? N
   N7         1.0     0.233425     0.184384     0.900815    Uiso  ? N
   N8         1.0     0.095410     0.123407     0.647207    Uiso  ? N
   N9         1.0     0.888550     0.205714     0.396360    Uiso  ? N
   N10        1.0     0.795437     0.089899     0.150970    Uiso  ? N
   N11        1.0     0.555886     0.200850     0.888163    Uiso  ? N
   N12        1.0     0.439812     0.101385     0.636522    Uiso  ? N
   N13        1.0     0.226284     0.538042     0.336787    Uiso  ? N
   N14        1.0     0.115360     0.424176     0.113813    Uiso  ? N
   N15        1.0     0.885418     0.536140     0.836585    Uiso  ? N
   N16        1.0     0.776860     0.426771     0.637653    Uiso  ? N
   N17        1.0     0.549047     0.540540     0.338550    Uiso  ? N
   N18        1.0     0.435088     0.447817     0.087329    Uiso  ? N
   N19        1.0     0.228969     0.549561     0.833967    Uiso  ? N
   N20        1.0     0.108990     0.435088     0.592569    Uiso  ? N
   N21        1.0     0.890096     0.538385     0.344843    Uiso  ? N
   N22        1.0     0.779315     0.422958     0.141517    Uiso  ? N
   N23        1.0     0.550107     0.542161     0.838373    Uiso  ? N
   N24        1.0     0.441057     0.432268     0.586368    Uiso  ? N
   N25        1.0     0.222315     0.873994     0.372147    Uiso  ? N
   N26        1.0     0.105078     0.752550     0.087737    Uiso  ? N
   N27        1.0     0.896464     0.881473     0.846025    Uiso  ? N
   N28        1.0     0.770841     0.753683     0.589236    Uiso  ? N
   N29        1.0     0.560139     0.862310     0.347234    Uiso  ? N
   N30        1.0     0.461082     0.754021     0.084763    Uiso  ? N
   N31        1.0     0.222750     0.871213     0.842473    Uiso  ? N
   N32        1.0     0.116801     0.742548     0.581925    Uiso  ? N
   N33        1.0     0.893148     0.862862     0.348456    Uiso  ? N
   N34        1.0     0.777636     0.762294     0.105964    Uiso  ? N
   N35        1.0     0.542412     0.874106     0.831939    Uiso  ? N
   N36        1.0     0.463285     0.748273     0.586230    Uiso  ? N
