
#======================================================================
# CRYSTAL DATA
#----------------------------------------------------------------------
data_VESTA_phase_1

_chemical_name_common                  'Al   Hf   Mg   N                      '
_cell_length_a                         9.623720
_cell_length_b                         9.663674
_cell_length_c                         10.164870
_cell_angle_alpha                      90.214394
_cell_angle_beta                       90.027557
_cell_angle_gamma                      60.090416
_cell_volume                           819.424814
_space_group_name_H-M_alt              'P 1'
_space_group_IT_number                 1

loop_
_space_group_symop_operation_xyz
   'x, y, z'

loop_
   _atom_site_label
   _atom_site_occupancy
   _atom_site_fract_x
   _atom_site_fract_y
   _atom_site_fract_z
   _atom_site_adp_type
   _atom_site_U_iso_or_equiv
   _atom_site_type_symbol
   Al1        1.0     0.106563     0.103266     0.326914    Uiso  ? Al
   Al2        1.0     0.215147     0.203752     0.075499    Uiso  ? Al
   Al3        1.0     0.777183     0.102116     0.820930    Uiso  ? Al
   Al4        1.0     0.882314     0.215631     0.575478    Uiso  ? Al
   Al5        1.0     0.440912     0.091593     0.329072    Uiso  ? Al
   Al6        1.0     0.107964     0.101616     0.827473    Uiso  ? Al
   Al7        1.0     0.218957     0.215274     0.573409    Uiso  ? Al
   Al8        1.0     0.787488     0.089663     0.327133    Uiso  ? Al
   Al9        1.0     0.894331     0.207943     0.075169    Uiso  ? Al
   Al10       1.0     0.437107     0.096056     0.821730    Uiso  ? Al
   Al11       1.0     0.558672     0.202061     0.572783    Uiso  ? Al
   Al12       1.0     0.110987     0.423601     0.326407    Uiso  ? Al
   Al13       1.0     0.218038     0.543988     0.140319    Uiso  ? Al
   Al14       1.0     0.783768     0.420821     0.825142    Uiso  ? Al
   Al15       1.0     0.892439     0.535331     0.569052    Uiso  ? Al
   Al16       1.0     0.441061     0.434474     0.391973    Uiso  ? Al
   Al17       1.0     0.554012     0.541481     0.142346    Uiso  ? Al
   Al18       1.0     0.225932     0.535121     0.641037    Uiso  ? Al
   Al19       1.0     0.783484     0.423127     0.325330    Uiso  ? Al
   Al20       1.0     0.889959     0.531939     0.079794    Uiso  ? Al
   Al21       1.0     0.438081     0.439598     0.886888    Uiso  ? Al
   Al22       1.0     0.557872     0.534487     0.640593    Uiso  ? Al
   Al23       1.0     0.113206     0.752929     0.387147    Uiso  ? Al
   Al24       1.0     0.448176     0.757868     0.369082    Uiso  ? Al
   Al25       1.0     0.553138     0.870827     0.080485    Uiso  ? Al
   Al26       1.0     0.119450     0.758601     0.892592    Uiso  ? Al
   Al27       1.0     0.781103     0.760327     0.318521    Uiso  ? Al
   Al28       1.0     0.891679     0.871215     0.081620    Uiso  ? Al
   Al29       1.0     0.438097     0.757527     0.891981    Uiso  ? Al
   Al30       1.0     0.563015     0.870117     0.567229    Uiso  ? Al
   Hf1        1.0     0.555740     0.202541     0.089984    Uiso  ? Hf
   Hf2        1.0     0.777451     0.758917     0.830759    Uiso  ? Hf
   Hf3        1.0     0.224690     0.871393     0.612119    Uiso  ? Hf
   Mg1        1.0     0.113499     0.419499     0.830958    Uiso  ? Mg
   Mg2        1.0     0.217421     0.872446     0.135504    Uiso  ? Mg
   Mg3        1.0     0.878554     0.878403     0.572456    Uiso  ? Mg
   N1         1.0     0.223333     0.205555     0.385554    Uiso  ? N
   N2         1.0     0.099952     0.112929     0.141297    Uiso  ? N
   N3         1.0     0.888197     0.206206     0.885964    Uiso  ? N
   N4         1.0     0.769596     0.112675     0.635157    Uiso  ? N
   N5         1.0     0.558517     0.201255     0.369798    Uiso  ? N
   N6         1.0     0.432999     0.085299     0.141235    Uiso  ? N
   N7         1.0     0.229877     0.189117     0.890139    Uiso  ? N
   N8         1.0     0.098098     0.121021     0.635616    Uiso  ? N
   N9         1.0     0.887444     0.207551     0.387472    Uiso  ? N
   N10        1.0     0.796470     0.088786     0.137253    Uiso  ? N
   N11        1.0     0.554089     0.202922     0.880923    Uiso  ? N
   N12        1.0     0.445818     0.092164     0.629661    Uiso  ? N
   N13        1.0     0.227603     0.537751     0.329096    Uiso  ? N
   N14        1.0     0.110592     0.422560     0.133006    Uiso  ? N
   N15        1.0     0.881754     0.528521     0.895274    Uiso  ? N
   N16        1.0     0.784224     0.427654     0.633330    Uiso  ? N
   N17        1.0     0.553043     0.537492     0.333103    Uiso  ? N
   N18        1.0     0.434293     0.447645     0.080149    Uiso  ? N
   N19        1.0     0.229414     0.549435     0.827742    Uiso  ? N
   N20        1.0     0.109704     0.428819     0.619987    Uiso  ? N
   N21        1.0     0.887810     0.539697     0.378051    Uiso  ? N
   N22        1.0     0.781278     0.422601     0.135535    Uiso  ? N
   N23        1.0     0.553741     0.539626     0.833193    Uiso  ? N
   N24        1.0     0.445365     0.428555     0.580676    Uiso  ? N
   N25        1.0     0.220432     0.877392     0.365254    Uiso  ? N
   N26        1.0     0.110726     0.749091     0.079584    Uiso  ? N
   N27        1.0     0.888313     0.888617     0.884446    Uiso  ? N
   N28        1.0     0.772644     0.751728     0.628741    Uiso  ? N
   N29        1.0     0.561037     0.872994     0.376742    Uiso  ? N
   N30        1.0     0.453642     0.752027     0.093995    Uiso  ? N
   N31        1.0     0.221995     0.871631     0.832389    Uiso  ? N
   N32        1.0     0.119094     0.739784     0.574179    Uiso  ? N
   N33        1.0     0.888632     0.871132     0.363719    Uiso  ? N
   N34        1.0     0.776732     0.761174     0.125824    Uiso  ? N
   N35        1.0     0.540201     0.883500     0.887978    Uiso  ? N
   N36        1.0     0.466519     0.745700     0.584095    Uiso  ? N
