
#======================================================================
# CRYSTAL DATA
#----------------------------------------------------------------------
data_VESTA_phase_1

_chemical_name_common                  'Al   Hf   Mg   N                      '
_cell_length_a                         9.624355
_cell_length_b                         9.640206
_cell_length_c                         10.162513
_cell_angle_alpha                      89.871109
_cell_angle_beta                       89.603287
_cell_angle_gamma                      59.996811
_cell_volume                           816.516416
_space_group_name_H-M_alt              'P 1'
_space_group_IT_number                 1

loop_
_space_group_symop_operation_xyz
   'x, y, z'

loop_
   _atom_site_label
   _atom_site_occupancy
   _atom_site_fract_x
   _atom_site_fract_y
   _atom_site_fract_z
   _atom_site_adp_type
   _atom_site_U_iso_or_equiv
   _atom_site_type_symbol
   Al1        1.0     0.111076     0.094717     0.372206    Uiso  ? Al
   Al2        1.0     0.215218     0.210267     0.150603    Uiso  ? Al
   Al3        1.0     0.775466     0.107062     0.826093    Uiso  ? Al
   Al4        1.0     0.882746     0.211423     0.577458    Uiso  ? Al
   Al5        1.0     0.438397     0.089800     0.396428    Uiso  ? Al
   Al6        1.0     0.117455     0.094068     0.904102    Uiso  ? Al
   Al7        1.0     0.220485     0.209851     0.651230    Uiso  ? Al
   Al8        1.0     0.784036     0.093115     0.337106    Uiso  ? Al
   Al9        1.0     0.890525     0.204527     0.085547    Uiso  ? Al
   Al10       1.0     0.436830     0.092782     0.897434    Uiso  ? Al
   Al11       1.0     0.556274     0.207369     0.580611    Uiso  ? Al
   Al12       1.0     0.111995     0.426862     0.399042    Uiso  ? Al
   Al13       1.0     0.214237     0.542967     0.150243    Uiso  ? Al
   Al14       1.0     0.774994     0.429472     0.898406    Uiso  ? Al
   Al15       1.0     0.888147     0.534266     0.643489    Uiso  ? Al
   Al16       1.0     0.438402     0.438582     0.394473    Uiso  ? Al
   Al17       1.0     0.557836     0.545090     0.148470    Uiso  ? Al
   Al18       1.0     0.224008     0.534308     0.648620    Uiso  ? Al
   Al19       1.0     0.772287     0.436156     0.395570    Uiso  ? Al
   Al20       1.0     0.893473     0.532885     0.154430    Uiso  ? Al
   Al21       1.0     0.439455     0.438598     0.896781    Uiso  ? Al
   Al22       1.0     0.561265     0.532264     0.647699    Uiso  ? Al
   Al23       1.0     0.113420     0.755083     0.397584    Uiso  ? Al
   Al24       1.0     0.446539     0.758896     0.397491    Uiso  ? Al
   Al25       1.0     0.554354     0.865343     0.153901    Uiso  ? Al
   Al26       1.0     0.113302     0.759956     0.903515    Uiso  ? Al
   Al27       1.0     0.776811     0.757508     0.402892    Uiso  ? Al
   Al28       1.0     0.899207     0.858627     0.156407    Uiso  ? Al
   Al29       1.0     0.446756     0.757238     0.901502    Uiso  ? Al
   Al30       1.0     0.556530     0.871866     0.642717    Uiso  ? Al
   Hf1        1.0     0.554090     0.206590     0.113582    Uiso  ? Hf
   Hf2        1.0     0.779670     0.762968     0.893914    Uiso  ? Hf
   Hf3        1.0     0.220176     0.873260     0.642100    Uiso  ? Hf
   Mg1        1.0     0.116721     0.424537     0.897577    Uiso  ? Mg
   Mg2        1.0     0.226537     0.864936     0.145297    Uiso  ? Mg
   Mg3        1.0     0.886582     0.871607     0.633057    Uiso  ? Mg
   N1         1.0     0.222684     0.206760     0.339662    Uiso  ? N
   N2         1.0     0.109306     0.103946     0.101778    Uiso  ? N
   N3         1.0     0.888245     0.203195     0.892036    Uiso  ? N
   N4         1.0     0.764443     0.118986     0.637386    Uiso  ? N
   N5         1.0     0.553910     0.205772     0.363253    Uiso  ? N
   N6         1.0     0.433686     0.080166     0.091274    Uiso  ? N
   N7         1.0     0.229401     0.192242     0.836486    Uiso  ? N
   N8         1.0     0.104032     0.111726     0.594067    Uiso  ? N
   N9         1.0     0.885375     0.206751     0.383295    Uiso  ? N
   N10        1.0     0.796841     0.086133     0.147209    Uiso  ? N
   N11        1.0     0.558386     0.204005     0.895014    Uiso  ? N
   N12        1.0     0.442639     0.092904     0.586095    Uiso  ? N
   N13        1.0     0.222356     0.537116     0.338796    Uiso  ? N
   N14        1.0     0.112208     0.427369     0.102362    Uiso  ? N
   N15        1.0     0.882826     0.530368     0.830806    Uiso  ? N
   N16        1.0     0.772985     0.434744     0.584875    Uiso  ? N
   N17        1.0     0.554457     0.541058     0.337081    Uiso  ? N
   N18        1.0     0.432553     0.453689     0.090460    Uiso  ? N
   N19        1.0     0.229873     0.547945     0.833821    Uiso  ? N
   N20        1.0     0.112531     0.426663     0.589713    Uiso  ? N
   N21        1.0     0.889369     0.537892     0.342780    Uiso  ? N
   N22        1.0     0.775598     0.433234     0.092685    Uiso  ? N
   N23        1.0     0.557601     0.537183     0.836946    Uiso  ? N
   N24        1.0     0.442771     0.432267     0.584352    Uiso  ? N
   N25        1.0     0.223679     0.869825     0.357769    Uiso  ? N
   N26        1.0     0.103817     0.751835     0.088872    Uiso  ? N
   N27        1.0     0.898887     0.880814     0.842952    Uiso  ? N
   N28        1.0     0.770405     0.752405     0.589806    Uiso  ? N
   N29        1.0     0.555225     0.870642     0.341617    Uiso  ? N
   N30        1.0     0.463390     0.752277     0.085163    Uiso  ? N
   N31        1.0     0.224822     0.871282     0.852561    Uiso  ? N
   N32        1.0     0.119060     0.742898     0.581190    Uiso  ? N
   N33        1.0     0.891331     0.864273     0.348707    Uiso  ? N
   N34        1.0     0.777841     0.760871     0.102169    Uiso  ? N
   N35        1.0     0.541552     0.879102     0.832177    Uiso  ? N
   N36        1.0     0.460394     0.750822     0.586467    Uiso  ? N
