
#======================================================================
# CRYSTAL DATA
#----------------------------------------------------------------------
data_VESTA_phase_1

_chemical_name_common                  'Al   Hf   Mg   N                      '
_cell_length_a                         9.619155
_cell_length_b                         9.636342
_cell_length_c                         10.226193
_cell_angle_alpha                      89.949554
_cell_angle_beta                       89.774567
_cell_angle_gamma                      60.085739
_cell_volume                           821.607942
_space_group_name_H-M_alt              'P 1'
_space_group_IT_number                 1

loop_
_space_group_symop_operation_xyz
   'x, y, z'

loop_
   _atom_site_label
   _atom_site_occupancy
   _atom_site_fract_x
   _atom_site_fract_y
   _atom_site_fract_z
   _atom_site_adp_type
   _atom_site_U_iso_or_equiv
   _atom_site_type_symbol
   Al1        1.0     0.107367     0.102576     0.332685    Uiso  ? Al
   Al2        1.0     0.214025     0.202682     0.084956    Uiso  ? Al
   Al3        1.0     0.774279     0.105777     0.827750    Uiso  ? Al
   Al4        1.0     0.883597     0.211418     0.582347    Uiso  ? Al
   Al5        1.0     0.444506     0.087383     0.386870    Uiso  ? Al
   Al6        1.0     0.104742     0.103056     0.835533    Uiso  ? Al
   Al7        1.0     0.217381     0.211032     0.581693    Uiso  ? Al
   Al8        1.0     0.787879     0.092535     0.338202    Uiso  ? Al
   Al9        1.0     0.897763     0.199256     0.083789    Uiso  ? Al
   Al10       1.0     0.439390     0.094483     0.877117    Uiso  ? Al
   Al11       1.0     0.559062     0.206217     0.578380    Uiso  ? Al
   Al12       1.0     0.108865     0.434067     0.395501    Uiso  ? Al
   Al13       1.0     0.214544     0.542528     0.148873    Uiso  ? Al
   Al14       1.0     0.773528     0.429783     0.900626    Uiso  ? Al
   Al15       1.0     0.887121     0.535894     0.644819    Uiso  ? Al
   Al16       1.0     0.439730     0.438195     0.395438    Uiso  ? Al
   Al17       1.0     0.558138     0.544407     0.147474    Uiso  ? Al
   Al18       1.0     0.224723     0.533790     0.649637    Uiso  ? Al
   Al19       1.0     0.774077     0.433512     0.398610    Uiso  ? Al
   Al20       1.0     0.894623     0.529666     0.155351    Uiso  ? Al
   Al21       1.0     0.437767     0.440420     0.898018    Uiso  ? Al
   Al22       1.0     0.562283     0.530442     0.649828    Uiso  ? Al
   Al23       1.0     0.113201     0.755302     0.398503    Uiso  ? Al
   Al24       1.0     0.450569     0.755766     0.399041    Uiso  ? Al
   Al25       1.0     0.555948     0.863221     0.157584    Uiso  ? Al
   Al26       1.0     0.113414     0.762169     0.901150    Uiso  ? Al
   Al27       1.0     0.779244     0.755859     0.403723    Uiso  ? Al
   Al28       1.0     0.900336     0.858268     0.156733    Uiso  ? Al
   Al29       1.0     0.441207     0.760875     0.899538    Uiso  ? Al
   Al30       1.0     0.559578     0.869027     0.641732    Uiso  ? Al
   Hf1        1.0     0.555446     0.205021     0.111671    Uiso  ? Hf
   Hf2        1.0     0.777336     0.762500     0.897922    Uiso  ? Hf
   Hf3        1.0     0.222986     0.870540     0.627066    Uiso  ? Hf
   Mg1        1.0     0.112526     0.431203     0.893821    Uiso  ? Mg
   Mg2        1.0     0.226796     0.865675     0.145418    Uiso  ? Mg
   Mg3        1.0     0.886722     0.870803     0.636954    Uiso  ? Mg
   N1         1.0     0.219213     0.205120     0.391396    Uiso  ? N
   N2         1.0     0.101256     0.109846     0.149722    Uiso  ? N
   N3         1.0     0.889536     0.200864     0.894841    Uiso  ? N
   N4         1.0     0.765018     0.118964     0.641777    Uiso  ? N
   N5         1.0     0.558843     0.204647     0.370003    Uiso  ? N
   N6         1.0     0.437088     0.080767     0.116767    Uiso  ? N
   N7         1.0     0.224291     0.189718     0.895691    Uiso  ? N
   N8         1.0     0.095158     0.122087     0.646238    Uiso  ? N
   N9         1.0     0.891446     0.201939     0.394537    Uiso  ? N
   N10        1.0     0.798272     0.086324     0.149068    Uiso  ? N
   N11        1.0     0.556708     0.203691     0.894621    Uiso  ? N
   N12        1.0     0.447515     0.090666     0.593475    Uiso  ? N
   N13        1.0     0.223969     0.538490     0.336986    Uiso  ? N
   N14        1.0     0.111110     0.428230     0.103647    Uiso  ? N
   N15        1.0     0.880060     0.531309     0.830985    Uiso  ? N
   N16        1.0     0.772859     0.435158     0.586486    Uiso  ? N
   N17        1.0     0.556398     0.539196     0.335968    Uiso  ? N
   N18        1.0     0.432298     0.453216     0.089672    Uiso  ? N
   N19        1.0     0.229587     0.548243     0.833577    Uiso  ? N
   N20        1.0     0.107517     0.435676     0.589603    Uiso  ? N
   N21        1.0     0.888431     0.537118     0.342287    Uiso  ? N
   N22        1.0     0.776049     0.431094     0.091618    Uiso  ? N
   N23        1.0     0.556875     0.537280     0.837999    Uiso  ? N
   N24        1.0     0.442767     0.432308     0.584549    Uiso  ? N
   N25        1.0     0.223531     0.874234     0.372337    Uiso  ? N
   N26        1.0     0.105016     0.753094     0.087292    Uiso  ? N
   N27        1.0     0.896186     0.879836     0.845467    Uiso  ? N
   N28        1.0     0.771966     0.752166     0.588982    Uiso  ? N
   N29        1.0     0.559025     0.865595     0.344414    Uiso  ? N
   N30        1.0     0.461828     0.753613     0.083855    Uiso  ? N
   N31        1.0     0.223897     0.869655     0.840477    Uiso  ? N
   N32        1.0     0.117344     0.741338     0.581327    Uiso  ? N
   N33        1.0     0.893101     0.862951     0.347818    Uiso  ? N
   N34        1.0     0.778538     0.759362     0.104232    Uiso  ? N
   N35        1.0     0.540981     0.878436     0.830395    Uiso  ? N
   N36        1.0     0.465402     0.746432     0.586593    Uiso  ? N
