
#======================================================================
# CRYSTAL DATA
#----------------------------------------------------------------------
data_VESTA_phase_1

_chemical_name_common                  'Al   Hf   Mg   N                      '
_cell_length_a                         9.605448
_cell_length_b                         9.620972
_cell_length_c                         10.196054
_cell_angle_alpha                      89.991096
_cell_angle_beta                       89.647453
_cell_angle_gamma                      60.074383
_cell_volume                           816.608097
_space_group_name_H-M_alt              'P 1'
_space_group_IT_number                 1

loop_
_space_group_symop_operation_xyz
   'x, y, z'

loop_
   _atom_site_label
   _atom_site_occupancy
   _atom_site_fract_x
   _atom_site_fract_y
   _atom_site_fract_z
   _atom_site_adp_type
   _atom_site_U_iso_or_equiv
   _atom_site_type_symbol
   Al1        1.0     0.114153     0.095578     0.394244    Uiso  ? Al
   Al2        1.0     0.215399     0.207610     0.152529    Uiso  ? Al
   Al3        1.0     0.781749     0.103027     0.827647    Uiso  ? Al
   Al4        1.0     0.878029     0.212969     0.577597    Uiso  ? Al
   Al5        1.0     0.443383     0.094182     0.397563    Uiso  ? Al
   Al6        1.0     0.118482     0.093958     0.904000    Uiso  ? Al
   Al7        1.0     0.219331     0.211224     0.648548    Uiso  ? Al
   Al8        1.0     0.783562     0.094455     0.334079    Uiso  ? Al
   Al9        1.0     0.892586     0.204493     0.082676    Uiso  ? Al
   Al10       1.0     0.434258     0.092630     0.894750    Uiso  ? Al
   Al11       1.0     0.547716     0.211441     0.637569    Uiso  ? Al
   Al12       1.0     0.112434     0.427210     0.397499    Uiso  ? Al
   Al13       1.0     0.216469     0.541542     0.150746    Uiso  ? Al
   Al14       1.0     0.773850     0.430506     0.897451    Uiso  ? Al
   Al15       1.0     0.887517     0.535259     0.643178    Uiso  ? Al
   Al16       1.0     0.442796     0.429822     0.397002    Uiso  ? Al
   Al17       1.0     0.557101     0.544723     0.148430    Uiso  ? Al
   Al18       1.0     0.221930     0.535359     0.648753    Uiso  ? Al
   Al19       1.0     0.771964     0.436075     0.395435    Uiso  ? Al
   Al20       1.0     0.893995     0.532050     0.154696    Uiso  ? Al
   Al21       1.0     0.437748     0.439670     0.894794    Uiso  ? Al
   Al22       1.0     0.560492     0.533637     0.647996    Uiso  ? Al
   Al23       1.0     0.114644     0.755226     0.397283    Uiso  ? Al
   Al24       1.0     0.446496     0.758996     0.397017    Uiso  ? Al
   Al25       1.0     0.553969     0.866120     0.154062    Uiso  ? Al
   Al26       1.0     0.114133     0.759083     0.905083    Uiso  ? Al
   Al27       1.0     0.776794     0.758391     0.401784    Uiso  ? Al
   Al28       1.0     0.900994     0.857470     0.155725    Uiso  ? Al
   Al29       1.0     0.445188     0.757921     0.902718    Uiso  ? Al
   Al30       1.0     0.556812     0.871325     0.642342    Uiso  ? Al
   Hf1        1.0     0.553841     0.206364     0.120838    Uiso  ? Hf
   Hf2        1.0     0.778617     0.762531     0.895385    Uiso  ? Hf
   Hf3        1.0     0.220291     0.873105     0.642884    Uiso  ? Hf
   Mg1        1.0     0.116536     0.422704     0.898441    Uiso  ? Mg
   Mg2        1.0     0.223345     0.871123     0.149810    Uiso  ? Mg
   Mg3        1.0     0.886970     0.870303     0.633551    Uiso  ? Mg
   N1         1.0     0.224252     0.204933     0.341296    Uiso  ? N
   N2         1.0     0.112151     0.104162     0.091186    Uiso  ? N
   N3         1.0     0.888457     0.204836     0.889371    Uiso  ? N
   N4         1.0     0.767669     0.115898     0.640163    Uiso  ? N
   N5         1.0     0.550515     0.207827     0.337839    Uiso  ? N
   N6         1.0     0.434895     0.080229     0.086147    Uiso  ? N
   N7         1.0     0.227679     0.191617     0.831450    Uiso  ? N
   N8         1.0     0.104619     0.111894     0.586133    Uiso  ? N
   N9         1.0     0.884936     0.206732     0.384410    Uiso  ? N
   N10        1.0     0.799743     0.084499     0.141516    Uiso  ? N
   N11        1.0     0.551600     0.206790     0.868224    Uiso  ? N
   N12        1.0     0.444214     0.094929     0.587437    Uiso  ? N
   N13        1.0     0.224807     0.536359     0.339358    Uiso  ? N
   N14        1.0     0.113584     0.425565     0.103592    Uiso  ? N
   N15        1.0     0.882690     0.530800     0.830074    Uiso  ? N
   N16        1.0     0.771954     0.435721     0.584959    Uiso  ? N
   N17        1.0     0.553746     0.539758     0.337414    Uiso  ? N
   N18        1.0     0.434478     0.450916     0.085374    Uiso  ? N
   N19        1.0     0.227683     0.548351     0.833346    Uiso  ? N
   N20        1.0     0.111286     0.427555     0.588098    Uiso  ? N
   N21        1.0     0.889212     0.537995     0.342323    Uiso  ? N
   N22        1.0     0.775316     0.433359     0.091555    Uiso  ? N
   N23        1.0     0.556291     0.538744     0.836428    Uiso  ? N
   N24        1.0     0.443894     0.428237     0.587357    Uiso  ? N
   N25        1.0     0.223150     0.872271     0.360189    Uiso  ? N
   N26        1.0     0.106727     0.750912     0.090002    Uiso  ? N
   N27        1.0     0.899847     0.878464     0.844567    Uiso  ? N
   N28        1.0     0.770136     0.752491     0.588259    Uiso  ? N
   N29        1.0     0.554876     0.872571     0.341765    Uiso  ? N
   N30        1.0     0.461490     0.753089     0.086316    Uiso  ? N
   N31        1.0     0.224039     0.871189     0.850983    Uiso  ? N
   N32        1.0     0.119621     0.742996     0.580870    Uiso  ? N
   N33        1.0     0.891773     0.865183     0.347364    Uiso  ? N
   N34        1.0     0.778341     0.759962     0.102675    Uiso  ? N
   N35        1.0     0.541061     0.878055     0.831229    Uiso  ? N
   N36        1.0     0.459472     0.751040     0.585878    Uiso  ? N
