
#======================================================================
# CRYSTAL DATA
#----------------------------------------------------------------------
data_VESTA_phase_1

_chemical_name_common                  'Al   Hf   Mg   N                      '
_cell_length_a                         9.603129
_cell_length_b                         9.620317
_cell_length_c                         10.196486
_cell_angle_alpha                      89.997345
_cell_angle_beta                       89.651131
_cell_angle_gamma                      60.076519
_cell_volume                           816.407592
_space_group_name_H-M_alt              'P 1'
_space_group_IT_number                 1

loop_
_space_group_symop_operation_xyz
   'x, y, z'

loop_
   _atom_site_label
   _atom_site_occupancy
   _atom_site_fract_x
   _atom_site_fract_y
   _atom_site_fract_z
   _atom_site_adp_type
   _atom_site_U_iso_or_equiv
   _atom_site_type_symbol
   Al1        1.0     0.114872     0.095542     0.398173    Uiso  ? Al
   Al2        1.0     0.216131     0.207477     0.156749    Uiso  ? Al
   Al3        1.0     0.783954     0.102210     0.830443    Uiso  ? Al
   Al4        1.0     0.877790     0.212873     0.580957    Uiso  ? Al
   Al5        1.0     0.443954     0.094306     0.404970    Uiso  ? Al
   Al6        1.0     0.118130     0.093993     0.909003    Uiso  ? Al
   Al7        1.0     0.218834     0.211288     0.652989    Uiso  ? Al
   Al8        1.0     0.784663     0.093455     0.340104    Uiso  ? Al
   Al9        1.0     0.892318     0.204624     0.088087    Uiso  ? Al
   Al10       1.0     0.433834     0.093324     0.897414    Uiso  ? Al
   Al11       1.0     0.546015     0.212399     0.654209    Uiso  ? Al
   Al12       1.0     0.112910     0.427029     0.401928    Uiso  ? Al
   Al13       1.0     0.217202     0.541097     0.154964    Uiso  ? Al
   Al14       1.0     0.773471     0.430615     0.902317    Uiso  ? Al
   Al15       1.0     0.887242     0.535083     0.647416    Uiso  ? Al
   Al16       1.0     0.443422     0.429149     0.404555    Uiso  ? Al
   Al17       1.0     0.557021     0.544491     0.152714    Uiso  ? Al
   Al18       1.0     0.221476     0.535678     0.653336    Uiso  ? Al
   Al19       1.0     0.772032     0.436208     0.399381    Uiso  ? Al
   Al20       1.0     0.894252     0.532056     0.159158    Uiso  ? Al
   Al21       1.0     0.437293     0.439577     0.897568    Uiso  ? Al
   Al22       1.0     0.560366     0.533677     0.652438    Uiso  ? Al
   Al23       1.0     0.115496     0.754622     0.401466    Uiso  ? Al
   Al24       1.0     0.446669     0.758977     0.401300    Uiso  ? Al
   Al25       1.0     0.554172     0.866455     0.158183    Uiso  ? Al
   Al26       1.0     0.113926     0.759211     0.909698    Uiso  ? Al
   Al27       1.0     0.776890     0.758206     0.406285    Uiso  ? Al
   Al28       1.0     0.901008     0.857271     0.160013    Uiso  ? Al
   Al29       1.0     0.444923     0.758080     0.907246    Uiso  ? Al
   Al30       1.0     0.556428     0.871588     0.646871    Uiso  ? Al
   Hf1        1.0     0.552743     0.207018     0.131593    Uiso  ? Hf
   Hf2        1.0     0.778427     0.762428     0.899498    Uiso  ? Hf
   Hf3        1.0     0.219986     0.873395     0.647242    Uiso  ? Hf
   Mg1        1.0     0.115976     0.422870     0.902856    Uiso  ? Mg
   Mg2        1.0     0.223467     0.871095     0.154476    Uiso  ? Mg
   Mg3        1.0     0.886651     0.870532     0.636954    Uiso  ? Mg
   N1         1.0     0.225621     0.204622     0.345687    Uiso  ? N
   N2         1.0     0.112261     0.104215     0.096244    Uiso  ? N
   N3         1.0     0.887981     0.204928     0.894927    Uiso  ? N
   N4         1.0     0.768272     0.115543     0.643324    Uiso  ? N
   N5         1.0     0.550850     0.207660     0.343232    Uiso  ? N
   N6         1.0     0.436193     0.080836     0.088549    Uiso  ? N
   N7         1.0     0.226397     0.191938     0.835964    Uiso  ? N
   N8         1.0     0.104489     0.111981     0.589864    Uiso  ? N
   N9         1.0     0.885587     0.206922     0.387564    Uiso  ? N
   N10        1.0     0.798864     0.084505     0.145964    Uiso  ? N
   N11        1.0     0.548551     0.208494     0.859535    Uiso  ? N
   N12        1.0     0.444139     0.095456     0.593766    Uiso  ? N
   N13        1.0     0.226188     0.535456     0.343838    Uiso  ? N
   N14        1.0     0.113956     0.425425     0.108087    Uiso  ? N
   N15        1.0     0.882271     0.530642     0.834399    Uiso  ? N
   N16        1.0     0.771755     0.435660     0.588811    Uiso  ? N
   N17        1.0     0.553516     0.539304     0.341929    Uiso  ? N
   N18        1.0     0.435681     0.449154     0.087900    Uiso  ? N
   N19        1.0     0.226458     0.549026     0.837930    Uiso  ? N
   N20        1.0     0.110985     0.427688     0.592456    Uiso  ? N
   N21        1.0     0.889555     0.537994     0.346658    Uiso  ? N
   N22        1.0     0.775365     0.433496     0.096419    Uiso  ? N
   N23        1.0     0.556117     0.539103     0.840932    Uiso  ? N
   N24        1.0     0.443971     0.427561     0.593872    Uiso  ? N
   N25        1.0     0.223404     0.872192     0.364367    Uiso  ? N
   N26        1.0     0.107131     0.750692     0.094735    Uiso  ? N
   N27        1.0     0.899714     0.878439     0.849073    Uiso  ? N
   N28        1.0     0.769878     0.752387     0.592702    Uiso  ? N
   N29        1.0     0.554909     0.873222     0.346199    Uiso  ? N
   N30        1.0     0.461448     0.753178     0.091003    Uiso  ? N
   N31        1.0     0.223648     0.871428     0.855556    Uiso  ? N
   N32        1.0     0.119659     0.743017     0.584986    Uiso  ? N
   N33        1.0     0.892363     0.864578     0.351734    Uiso  ? N
   N34        1.0     0.778578     0.759658     0.106875    Uiso  ? N
   N35        1.0     0.540799     0.877954     0.835743    Uiso  ? N
   N36        1.0     0.459238     0.751150     0.590141    Uiso  ? N
