
#======================================================================
# CRYSTAL DATA
#----------------------------------------------------------------------
data_VESTA_phase_1

_chemical_name_common                  'Al   Hf   Mg   N                      '
_cell_length_a                         9.582997
_cell_length_b                         9.602864
_cell_length_c                         10.118720
_cell_angle_alpha                      89.934418
_cell_angle_beta                       89.960960
_cell_angle_gamma                      59.956432
_cell_volume                           806.059780
_space_group_name_H-M_alt              'P 1'
_space_group_IT_number                 1

loop_
_space_group_symop_operation_xyz
   'x, y, z'

loop_
   _atom_site_label
   _atom_site_occupancy
   _atom_site_fract_x
   _atom_site_fract_y
   _atom_site_fract_z
   _atom_site_adp_type
   _atom_site_U_iso_or_equiv
   _atom_site_type_symbol
   Al1        1.0     0.108357     0.098445     0.308780    Uiso  ? Al
   Al2        1.0     0.216157     0.205778     0.062976    Uiso  ? Al
   Al3        1.0     0.782005     0.099325     0.807373    Uiso  ? Al
   Al4        1.0     0.882104     0.214198     0.562237    Uiso  ? Al
   Al5        1.0     0.441281     0.091519     0.318336    Uiso  ? Al
   Al6        1.0     0.109103     0.101382     0.815871    Uiso  ? Al
   Al7        1.0     0.218491     0.213249     0.559529    Uiso  ? Al
   Al8        1.0     0.783458     0.091895     0.316666    Uiso  ? Al
   Al9        1.0     0.892867     0.208730     0.063001    Uiso  ? Al
   Al10       1.0     0.436471     0.095518     0.808010    Uiso  ? Al
   Al11       1.0     0.555933     0.206510     0.561693    Uiso  ? Al
   Al12       1.0     0.112137     0.427416     0.313081    Uiso  ? Al
   Al13       1.0     0.217928     0.544112     0.062963    Uiso  ? Al
   Al14       1.0     0.777418     0.424056     0.812099    Uiso  ? Al
   Al15       1.0     0.890198     0.535278     0.556448    Uiso  ? Al
   Al16       1.0     0.441702     0.433606     0.318132    Uiso  ? Al
   Al17       1.0     0.557392     0.542431     0.062638    Uiso  ? Al
   Al18       1.0     0.220709     0.533735     0.560091    Uiso  ? Al
   Al19       1.0     0.776668     0.427235     0.311974    Uiso  ? Al
   Al20       1.0     0.890810     0.532673     0.068729    Uiso  ? Al
   Al21       1.0     0.441340     0.432729     0.808117    Uiso  ? Al
   Al22       1.0     0.561527     0.533075     0.562466    Uiso  ? Al
   Al23       1.0     0.109363     0.759023     0.307096    Uiso  ? Al
   Al24       1.0     0.447431     0.757845     0.309032    Uiso  ? Al
   Al25       1.0     0.551324     0.868516     0.067270    Uiso  ? Al
   Al26       1.0     0.118117     0.756515     0.816049    Uiso  ? Al
   Al27       1.0     0.778489     0.761360     0.307318    Uiso  ? Al
   Al28       1.0     0.897251     0.870244     0.069824    Uiso  ? Al
   Al29       1.0     0.445949     0.757057     0.814594    Uiso  ? Al
   Al30       1.0     0.559897     0.868917     0.557848    Uiso  ? Al
   Hf1        1.0     0.553613     0.206436     0.069048    Uiso  ? Hf
   Hf2        1.0     0.780285     0.759168     0.820724    Uiso  ? Hf
   Hf3        1.0     0.220553     0.873332     0.576484    Uiso  ? Hf
   Mg1        1.0     0.116833     0.423140     0.812964    Uiso  ? Mg
   Mg2        1.0     0.222171     0.873874     0.059220    Uiso  ? Mg
   Mg3        1.0     0.885003     0.872724     0.557597    Uiso  ? Mg
   N1         1.0     0.221528     0.204663     0.370876    Uiso  ? N
   N2         1.0     0.102830     0.108691     0.124014    Uiso  ? N
   N3         1.0     0.887675     0.207296     0.872979    Uiso  ? N
   N4         1.0     0.771510     0.109088     0.621356    Uiso  ? N
   N5         1.0     0.554940     0.205552     0.365085    Uiso  ? N
   N6         1.0     0.436164     0.085672     0.128705    Uiso  ? N
   N7         1.0     0.229846     0.192118     0.876945    Uiso  ? N
   N8         1.0     0.098705     0.117674     0.624701    Uiso  ? N
   N9         1.0     0.888335     0.207021     0.372951    Uiso  ? N
   N10        1.0     0.792175     0.090834     0.125244    Uiso  ? N
   N11        1.0     0.554839     0.204230     0.861945    Uiso  ? N
   N12        1.0     0.444184     0.092164     0.616807    Uiso  ? N
   N13        1.0     0.222013     0.539587     0.370475    Uiso  ? N
   N14        1.0     0.114350     0.426272     0.121878    Uiso  ? N
   N15        1.0     0.883372     0.526900     0.882002    Uiso  ? N
   N16        1.0     0.777884     0.429324     0.621255    Uiso  ? N
   N17        1.0     0.556257     0.538692     0.373668    Uiso  ? N
   N18        1.0     0.438093     0.443759     0.127857    Uiso  ? N
   N19        1.0     0.231717     0.543694     0.877100    Uiso  ? N
   N20        1.0     0.108953     0.428698     0.607470    Uiso  ? N
   N21        1.0     0.886949     0.539405     0.364471    Uiso  ? N
   N22        1.0     0.775529     0.426266     0.123406    Uiso  ? N
   N23        1.0     0.556672     0.536133     0.870920    Uiso  ? N
   N24        1.0     0.443694     0.427707     0.617548    Uiso  ? N
   N25        1.0     0.221935     0.872420     0.365549    Uiso  ? N
   N26        1.0     0.108472     0.753808     0.122624    Uiso  ? N
   N27        1.0     0.898425     0.883771     0.877137    Uiso  ? N
   N28        1.0     0.772373     0.751210     0.617680    Uiso  ? N
   N29        1.0     0.556477     0.870125     0.369365    Uiso  ? N
   N30        1.0     0.457757     0.752305     0.123810    Uiso  ? N
   N31        1.0     0.222697     0.875315     0.843263    Uiso  ? N
   N32        1.0     0.114771     0.742927     0.628377    Uiso  ? N
   N33        1.0     0.888136     0.871355     0.355758    Uiso  ? N
   N34        1.0     0.776860     0.762675     0.112047    Uiso  ? N
   N35        1.0     0.539952     0.879856     0.876534    Uiso  ? N
   N36        1.0     0.464096     0.749801     0.623906    Uiso  ? N
