
#======================================================================
# CRYSTAL DATA
#----------------------------------------------------------------------
data_VESTA_phase_1

_chemical_name_common                  'Al   Hf   Mg   N                      '
_cell_length_a                         9.633700
_cell_length_b                         9.655159
_cell_length_c                         10.160858
_cell_angle_alpha                      89.752991
_cell_angle_beta                       89.657417
_cell_angle_gamma                      59.994286
_cell_volume                           818.427674
_space_group_name_H-M_alt              'P 1'
_space_group_IT_number                 1

loop_
_space_group_symop_operation_xyz
   'x, y, z'

loop_
   _atom_site_label
   _atom_site_occupancy
   _atom_site_fract_x
   _atom_site_fract_y
   _atom_site_fract_z
   _atom_site_adp_type
   _atom_site_U_iso_or_equiv
   _atom_site_type_symbol
   Al1        1.0     0.106396     0.100359     0.332901    Uiso  ? Al
   Al2        1.0     0.214834     0.209314     0.134503    Uiso  ? Al
   Al3        1.0     0.773087     0.106628     0.828286    Uiso  ? Al
   Al4        1.0     0.883032     0.211559     0.580819    Uiso  ? Al
   Al5        1.0     0.437931     0.089656     0.398416    Uiso  ? Al
   Al6        1.0     0.104260     0.100373     0.836006    Uiso  ? Al
   Al7        1.0     0.223638     0.214066     0.649586    Uiso  ? Al
   Al8        1.0     0.786681     0.092780     0.338547    Uiso  ? Al
   Al9        1.0     0.896419     0.199609     0.082373    Uiso  ? Al
   Al10       1.0     0.438564     0.091637     0.896751    Uiso  ? Al
   Al11       1.0     0.557619     0.207255     0.580942    Uiso  ? Al
   Al12       1.0     0.113140     0.425925     0.400425    Uiso  ? Al
   Al13       1.0     0.214166     0.542606     0.149235    Uiso  ? Al
   Al14       1.0     0.773826     0.430192     0.899696    Uiso  ? Al
   Al15       1.0     0.887088     0.535583     0.644010    Uiso  ? Al
   Al16       1.0     0.438886     0.438282     0.394277    Uiso  ? Al
   Al17       1.0     0.558835     0.543693     0.147735    Uiso  ? Al
   Al18       1.0     0.224965     0.534673     0.649920    Uiso  ? Al
   Al19       1.0     0.774227     0.434133     0.397399    Uiso  ? Al
   Al20       1.0     0.893955     0.530748     0.155096    Uiso  ? Al
   Al21       1.0     0.439614     0.438190     0.898094    Uiso  ? Al
   Al22       1.0     0.562438     0.531126     0.648990    Uiso  ? Al
   Al23       1.0     0.112515     0.753929     0.397528    Uiso  ? Al
   Al24       1.0     0.450824     0.756983     0.397449    Uiso  ? Al
   Al25       1.0     0.554275     0.864136     0.154143    Uiso  ? Al
   Al26       1.0     0.114271     0.762154     0.900697    Uiso  ? Al
   Al27       1.0     0.778054     0.756980     0.402540    Uiso  ? Al
   Al28       1.0     0.899319     0.859052     0.155764    Uiso  ? Al
   Al29       1.0     0.442792     0.759442     0.898950    Uiso  ? Al
   Al30       1.0     0.558872     0.870065     0.643887    Uiso  ? Al
   Hf1        1.0     0.553657     0.205826     0.116606    Uiso  ? Hf
   Hf2        1.0     0.779192     0.762191     0.895846    Uiso  ? Hf
   Hf3        1.0     0.222503     0.870700     0.624407    Uiso  ? Hf
   Mg1        1.0     0.114779     0.429069     0.894276    Uiso  ? Mg
   Mg2        1.0     0.227059     0.863453     0.144037    Uiso  ? Mg
   Mg3        1.0     0.886276     0.871911     0.635622    Uiso  ? Mg
   N1         1.0     0.223302     0.207933     0.351029    Uiso  ? N
   N2         1.0     0.100785     0.105457     0.143858    Uiso  ? N
   N3         1.0     0.889184     0.202002     0.893375    Uiso  ? N
   N4         1.0     0.764122     0.119183     0.640120    Uiso  ? N
   N5         1.0     0.555909     0.204766     0.364782    Uiso  ? N
   N6         1.0     0.434613     0.077865     0.090110    Uiso  ? N
   N7         1.0     0.230366     0.196704     0.841844    Uiso  ? N
   N8         1.0     0.092532     0.118493     0.641453    Uiso  ? N
   N9         1.0     0.890020     0.203120     0.391728    Uiso  ? N
   N10        1.0     0.796659     0.086921     0.147632    Uiso  ? N
   N11        1.0     0.558230     0.204211     0.896904    Uiso  ? N
   N12        1.0     0.445007     0.091595     0.589197    Uiso  ? N
   N13        1.0     0.222571     0.537365     0.337966    Uiso  ? N
   N14        1.0     0.111328     0.427973     0.099319    Uiso  ? N
   N15        1.0     0.880907     0.530973     0.831056    Uiso  ? N
   N16        1.0     0.773152     0.435002     0.586161    Uiso  ? N
   N17        1.0     0.556052     0.539888     0.336612    Uiso  ? N
   N18        1.0     0.433001     0.452322     0.091546    Uiso  ? N
   N19        1.0     0.230639     0.548953     0.834520    Uiso  ? N
   N20        1.0     0.111487     0.429705     0.591864    Uiso  ? N
   N21        1.0     0.890166     0.536896     0.343315    Uiso  ? N
   N22        1.0     0.776789     0.430854     0.092282    Uiso  ? N
   N23        1.0     0.557275     0.536914     0.838071    Uiso  ? N
   N24        1.0     0.443033     0.432274     0.584476    Uiso  ? N
   N25        1.0     0.223183     0.873337     0.372004    Uiso  ? N
   N26        1.0     0.104522     0.752352     0.087962    Uiso  ? N
   N27        1.0     0.897346     0.880891     0.845251    Uiso  ? N
   N28        1.0     0.771433     0.752828     0.589415    Uiso  ? N
   N29        1.0     0.556140     0.870682     0.341691    Uiso  ? N
   N30        1.0     0.461811     0.752198     0.084537    Uiso  ? N
   N31        1.0     0.225180     0.869678     0.841653    Uiso  ? N
   N32        1.0     0.116731     0.740962     0.581206    Uiso  ? N
   N33        1.0     0.892151     0.863899     0.347827    Uiso  ? N
   N34        1.0     0.778061     0.759727     0.103715    Uiso  ? N
   N35        1.0     0.542020     0.878294     0.832654    Uiso  ? N
   N36        1.0     0.466081     0.747513     0.586168    Uiso  ? N
