
#======================================================================
# CRYSTAL DATA
#----------------------------------------------------------------------
data_VESTA_phase_1

_chemical_name_common                  'Al   Hf   Mg   N                      '
_cell_length_a                         9.622777
_cell_length_b                         9.659603
_cell_length_c                         10.225038
_cell_angle_alpha                      90.444374
_cell_angle_beta                       90.224968
_cell_angle_gamma                      60.009594
_cell_volume                           823.159819
_space_group_name_H-M_alt              'P 1'
_space_group_IT_number                 1

loop_
_space_group_symop_operation_xyz
   'x, y, z'

loop_
   _atom_site_label
   _atom_site_occupancy
   _atom_site_fract_x
   _atom_site_fract_y
   _atom_site_fract_z
   _atom_site_adp_type
   _atom_site_U_iso_or_equiv
   _atom_site_type_symbol
   Al1        1.0     0.107917     0.100447     0.329076    Uiso  ? Al
   Al2        1.0     0.215661     0.201862     0.078844    Uiso  ? Al
   Al3        1.0     0.776791     0.105764     0.818545    Uiso  ? Al
   Al4        1.0     0.882868     0.217696     0.577758    Uiso  ? Al
   Al5        1.0     0.438655     0.095962     0.335844    Uiso  ? Al
   Al6        1.0     0.107294     0.103504     0.834746    Uiso  ? Al
   Al7        1.0     0.216727     0.216338     0.575785    Uiso  ? Al
   Al8        1.0     0.782027     0.097229     0.335044    Uiso  ? Al
   Al9        1.0     0.894341     0.205614     0.078852    Uiso  ? Al
   Al10       1.0     0.434888     0.098300     0.820142    Uiso  ? Al
   Al11       1.0     0.555882     0.206731     0.574485    Uiso  ? Al
   Al12       1.0     0.111198     0.422625     0.328507    Uiso  ? Al
   Al13       1.0     0.218422     0.542145     0.142198    Uiso  ? Al
   Al14       1.0     0.782363     0.422913     0.829701    Uiso  ? Al
   Al15       1.0     0.893434     0.533772     0.574230    Uiso  ? Al
   Al16       1.0     0.439470     0.435801     0.394436    Uiso  ? Al
   Al17       1.0     0.553385     0.540804     0.145353    Uiso  ? Al
   Al18       1.0     0.224751     0.536603     0.645821    Uiso  ? Al
   Al19       1.0     0.783174     0.422376     0.327602    Uiso  ? Al
   Al20       1.0     0.889996     0.529926     0.083135    Uiso  ? Al
   Al21       1.0     0.436679     0.443318     0.888851    Uiso  ? Al
   Al22       1.0     0.557972     0.534720     0.645242    Uiso  ? Al
   Al23       1.0     0.116262     0.753525     0.392844    Uiso  ? Al
   Al24       1.0     0.446964     0.753451     0.392179    Uiso  ? Al
   Al25       1.0     0.554515     0.862952     0.130340    Uiso  ? Al
   Al26       1.0     0.110650     0.764524     0.897637    Uiso  ? Al
   Al27       1.0     0.783020     0.752114     0.334231    Uiso  ? Al
   Al28       1.0     0.900566     0.862572     0.147608    Uiso  ? Al
   Al29       1.0     0.442447     0.761301     0.900343    Uiso  ? Al
   Al30       1.0     0.561055     0.872728     0.583418    Uiso  ? Al
   Hf1        1.0     0.557812     0.196800     0.083724    Uiso  ? Hf
   Hf2        1.0     0.776861     0.760210     0.834698    Uiso  ? Hf
   Hf3        1.0     0.225219     0.869640     0.629432    Uiso  ? Hf
   Mg1        1.0     0.112588     0.421926     0.835683    Uiso  ? Mg
   Mg2        1.0     0.223232     0.866498     0.142464    Uiso  ? Mg
   Mg3        1.0     0.886741     0.877897     0.611566    Uiso  ? Mg
   N1         1.0     0.221065     0.206058     0.389237    Uiso  ? N
   N2         1.0     0.101448     0.109514     0.143750    Uiso  ? N
   N3         1.0     0.886627     0.207865     0.890404    Uiso  ? N
   N4         1.0     0.765934     0.120853     0.632763    Uiso  ? N
   N5         1.0     0.557128     0.202232     0.377582    Uiso  ? N
   N6         1.0     0.432897     0.086049     0.147801    Uiso  ? N
   N7         1.0     0.230008     0.191403     0.894655    Uiso  ? N
   N8         1.0     0.098779     0.119378     0.640758    Uiso  ? N
   N9         1.0     0.888781     0.208051     0.391050    Uiso  ? N
   N10        1.0     0.793648     0.090566     0.143767    Uiso  ? N
   N11        1.0     0.553456     0.205100     0.877834    Uiso  ? N
   N12        1.0     0.442320     0.097887     0.628042    Uiso  ? N
   N13        1.0     0.226509     0.538409     0.330889    Uiso  ? N
   N14        1.0     0.110667     0.420819     0.137189    Uiso  ? N
   N15        1.0     0.881583     0.528323     0.900705    Uiso  ? N
   N16        1.0     0.784320     0.428669     0.638225    Uiso  ? N
   N17        1.0     0.551511     0.538448     0.334643    Uiso  ? N
   N18        1.0     0.435515     0.444204     0.082197    Uiso  ? N
   N19        1.0     0.227541     0.553232     0.831529    Uiso  ? N
   N20        1.0     0.109863     0.428931     0.625402    Uiso  ? N
   N21        1.0     0.890067     0.534535     0.384992    Uiso  ? N
   N22        1.0     0.781331     0.421128     0.139786    Uiso  ? N
   N23        1.0     0.551863     0.542685     0.834614    Uiso  ? N
   N24        1.0     0.442298     0.433604     0.582580    Uiso  ? N
   N25        1.0     0.222249     0.874700     0.363642    Uiso  ? N
   N26        1.0     0.105320     0.750909     0.082981    Uiso  ? N
   N27        1.0     0.895743     0.886768     0.845689    Uiso  ? N
   N28        1.0     0.774219     0.750017     0.627719    Uiso  ? N
   N29        1.0     0.558119     0.870697     0.369754    Uiso  ? N
   N30        1.0     0.457398     0.748764     0.086406    Uiso  ? N
   N31        1.0     0.223205     0.871791     0.840631    Uiso  ? N
   N32        1.0     0.120122     0.741306     0.575206    Uiso  ? N
   N33        1.0     0.894834     0.868113     0.345980    Uiso  ? N
   N34        1.0     0.779377     0.754448     0.138573    Uiso  ? N
   N35        1.0     0.536966     0.883628     0.861383    Uiso  ? N
   N36        1.0     0.465233     0.745270     0.579522    Uiso  ? N
