
#======================================================================
# CRYSTAL DATA
#----------------------------------------------------------------------
data_VESTA_phase_1

_chemical_name_common                  'Al   Hf   Mg   N                      '
_cell_length_a                         9.616524
_cell_length_b                         9.656510
_cell_length_c                         10.233269
_cell_angle_alpha                      90.432961
_cell_angle_beta                       90.236122
_cell_angle_gamma                      59.999054
_cell_volume                           822.937316
_space_group_name_H-M_alt              'P 1'
_space_group_IT_number                 1

loop_
_space_group_symop_operation_xyz
   'x, y, z'

loop_
   _atom_site_label
   _atom_site_occupancy
   _atom_site_fract_x
   _atom_site_fract_y
   _atom_site_fract_z
   _atom_site_adp_type
   _atom_site_U_iso_or_equiv
   _atom_site_type_symbol
   Al1        1.0     0.108057     0.100631     0.329249    Uiso  ? Al
   Al2        1.0     0.215647     0.201920     0.079159    Uiso  ? Al
   Al3        1.0     0.776844     0.105733     0.818622    Uiso  ? Al
   Al4        1.0     0.882866     0.217690     0.577721    Uiso  ? Al
   Al5        1.0     0.440042     0.093215     0.334359    Uiso  ? Al
   Al6        1.0     0.107240     0.103666     0.834404    Uiso  ? Al
   Al7        1.0     0.217363     0.215836     0.576169    Uiso  ? Al
   Al8        1.0     0.781938     0.097111     0.335102    Uiso  ? Al
   Al9        1.0     0.894384     0.205633     0.078973    Uiso  ? Al
   Al10       1.0     0.435865     0.097315     0.821923    Uiso  ? Al
   Al11       1.0     0.555713     0.206113     0.574948    Uiso  ? Al
   Al12       1.0     0.111189     0.422738     0.328831    Uiso  ? Al
   Al13       1.0     0.218341     0.542316     0.142395    Uiso  ? Al
   Al14       1.0     0.782717     0.422781     0.829520    Uiso  ? Al
   Al15       1.0     0.892918     0.534247     0.574091    Uiso  ? Al
   Al16       1.0     0.439561     0.435498     0.394705    Uiso  ? Al
   Al17       1.0     0.553282     0.540937     0.146115    Uiso  ? Al
   Al18       1.0     0.224773     0.536611     0.645767    Uiso  ? Al
   Al19       1.0     0.783329     0.422449     0.327708    Uiso  ? Al
   Al20       1.0     0.889878     0.530146     0.083500    Uiso  ? Al
   Al21       1.0     0.436880     0.443013     0.888992    Uiso  ? Al
   Al22       1.0     0.557887     0.534796     0.644994    Uiso  ? Al
   Al23       1.0     0.115806     0.753474     0.392833    Uiso  ? Al
   Al24       1.0     0.447252     0.753857     0.391756    Uiso  ? Al
   Al25       1.0     0.555104     0.866233     0.099967    Uiso  ? Al
   Al26       1.0     0.110886     0.764415     0.897769    Uiso  ? Al
   Al27       1.0     0.779366     0.753863     0.331770    Uiso  ? Al
   Al28       1.0     0.900302     0.862577     0.147791    Uiso  ? Al
   Al29       1.0     0.440879     0.759184     0.900915    Uiso  ? Al
   Al30       1.0     0.562275     0.873166     0.573291    Uiso  ? Al
   Hf1        1.0     0.557674     0.197457     0.084400    Uiso  ? Hf
   Hf2        1.0     0.777411     0.759871     0.834205    Uiso  ? Hf
   Hf3        1.0     0.225164     0.869740     0.628538    Uiso  ? Hf
   Mg1        1.0     0.112935     0.421727     0.835547    Uiso  ? Mg
   Mg2        1.0     0.223266     0.866457     0.143409    Uiso  ? Mg
   Mg3        1.0     0.886313     0.877705     0.611498    Uiso  ? Mg
   N1         1.0     0.221891     0.205715     0.389453    Uiso  ? N
   N2         1.0     0.101469     0.109557     0.143996    Uiso  ? N
   N3         1.0     0.886765     0.207803     0.890482    Uiso  ? N
   N4         1.0     0.766037     0.120671     0.632994    Uiso  ? N
   N5         1.0     0.556864     0.201974     0.377697    Uiso  ? N
   N6         1.0     0.433824     0.084682     0.147422    Uiso  ? N
   N7         1.0     0.230065     0.191223     0.894759    Uiso  ? N
   N8         1.0     0.098709     0.119597     0.640857    Uiso  ? N
   N9         1.0     0.888792     0.208030     0.391180    Uiso  ? N
   N10        1.0     0.793723     0.090691     0.143801    Uiso  ? N
   N11        1.0     0.553769     0.205130     0.878361    Uiso  ? N
   N12        1.0     0.443460     0.095391     0.630991    Uiso  ? N
   N13        1.0     0.226577     0.538476     0.330891    Uiso  ? N
   N14        1.0     0.110642     0.420861     0.137386    Uiso  ? N
   N15        1.0     0.881750     0.528713     0.900825    Uiso  ? N
   N16        1.0     0.784417     0.428585     0.638348    Uiso  ? N
   N17        1.0     0.551680     0.538400     0.335135    Uiso  ? N
   N18        1.0     0.435323     0.444399     0.082262    Uiso  ? N
   N19        1.0     0.227699     0.553294     0.831444    Uiso  ? N
   N20        1.0     0.109760     0.428958     0.625384    Uiso  ? N
   N21        1.0     0.889376     0.535598     0.384866    Uiso  ? N
   N22        1.0     0.781382     0.421082     0.139884    Uiso  ? N
   N23        1.0     0.552160     0.542536     0.834324    Uiso  ? N
   N24        1.0     0.442353     0.433135     0.582762    Uiso  ? N
   N25        1.0     0.222141     0.874784     0.363978    Uiso  ? N
   N26        1.0     0.105093     0.751073     0.082842    Uiso  ? N
   N27        1.0     0.895955     0.886222     0.845593    Uiso  ? N
   N28        1.0     0.772034     0.750707     0.629627    Uiso  ? N
   N29        1.0     0.558909     0.872628     0.380270    Uiso  ? N
   N30        1.0     0.455971     0.747457     0.086692    Uiso  ? N
   N31        1.0     0.223582     0.871964     0.839948    Uiso  ? N
   N32        1.0     0.119724     0.741249     0.575113    Uiso  ? N
   N33        1.0     0.894392     0.867856     0.345488    Uiso  ? N
   N34        1.0     0.777516     0.755422     0.138169    Uiso  ? N
   N35        1.0     0.539465     0.885651     0.883364    Uiso  ? N
   N36        1.0     0.465163     0.745309     0.580724    Uiso  ? N
