
#======================================================================
# CRYSTAL DATA
#----------------------------------------------------------------------
data_VESTA_phase_1

_chemical_name_common                  'Al   Hf   Mg   N                      '
_cell_length_a                         9.624461
_cell_length_b                         9.646609
_cell_length_c                         10.105854
_cell_angle_alpha                      89.987236
_cell_angle_beta                       89.628464
_cell_angle_gamma                      60.032043
_cell_volume                           812.798967
_space_group_name_H-M_alt              'P 1'
_space_group_IT_number                 1

loop_
_space_group_symop_operation_xyz
   'x, y, z'

loop_
   _atom_site_label
   _atom_site_occupancy
   _atom_site_fract_x
   _atom_site_fract_y
   _atom_site_fract_z
   _atom_site_adp_type
   _atom_site_U_iso_or_equiv
   _atom_site_type_symbol
   Al1        1.0     0.114066     0.096815     0.396985    Uiso  ? Al
   Al2        1.0     0.217571     0.207877     0.156942    Uiso  ? Al
   Al3        1.0     0.784240     0.101203     0.830789    Uiso  ? Al
   Al4        1.0     0.879100     0.214798     0.593918    Uiso  ? Al
   Al5        1.0     0.443611     0.094522     0.405230    Uiso  ? Al
   Al6        1.0     0.112373     0.096809     0.910407    Uiso  ? Al
   Al7        1.0     0.218171     0.211567     0.653748    Uiso  ? Al
   Al8        1.0     0.782628     0.093054     0.346017    Uiso  ? Al
   Al9        1.0     0.894482     0.207349     0.116676    Uiso  ? Al
   Al10       1.0     0.432826     0.092790     0.897576    Uiso  ? Al
   Al11       1.0     0.545235     0.212021     0.653860    Uiso  ? Al
   Al12       1.0     0.113130     0.427249     0.402260    Uiso  ? Al
   Al13       1.0     0.217810     0.540752     0.155149    Uiso  ? Al
   Al14       1.0     0.775792     0.426555     0.904298    Uiso  ? Al
   Al15       1.0     0.887370     0.534669     0.648742    Uiso  ? Al
   Al16       1.0     0.443466     0.429090     0.405044    Uiso  ? Al
   Al17       1.0     0.556720     0.544510     0.153620    Uiso  ? Al
   Al18       1.0     0.221690     0.535548     0.654318    Uiso  ? Al
   Al19       1.0     0.772983     0.435252     0.399032    Uiso  ? Al
   Al20       1.0     0.894626     0.533448     0.159423    Uiso  ? Al
   Al21       1.0     0.437741     0.439689     0.897832    Uiso  ? Al
   Al22       1.0     0.560003     0.533770     0.653390    Uiso  ? Al
   Al23       1.0     0.116195     0.754313     0.401728    Uiso  ? Al
   Al24       1.0     0.446751     0.758786     0.401652    Uiso  ? Al
   Al25       1.0     0.554491     0.866364     0.158704    Uiso  ? Al
   Al26       1.0     0.113570     0.759644     0.910028    Uiso  ? Al
   Al27       1.0     0.776685     0.757753     0.407555    Uiso  ? Al
   Al28       1.0     0.900803     0.857471     0.161036    Uiso  ? Al
   Al29       1.0     0.444557     0.758004     0.907685    Uiso  ? Al
   Al30       1.0     0.555505     0.871594     0.647524    Uiso  ? Al
   Hf1        1.0     0.554338     0.205946     0.129877    Uiso  ? Hf
   Hf2        1.0     0.778179     0.762550     0.898167    Uiso  ? Hf
   Hf3        1.0     0.219497     0.874265     0.646970    Uiso  ? Hf
   Mg1        1.0     0.115825     0.422761     0.902846    Uiso  ? Mg
   Mg2        1.0     0.223998     0.870651     0.154317    Uiso  ? Mg
   Mg3        1.0     0.887240     0.869587     0.635249    Uiso  ? Mg
   N1         1.0     0.226051     0.205078     0.346775    Uiso  ? N
   N2         1.0     0.112028     0.104989     0.099008    Uiso  ? N
   N3         1.0     0.889308     0.206124     0.882575    Uiso  ? N
   N4         1.0     0.766896     0.113837     0.637765    Uiso  ? N
   N5         1.0     0.550415     0.207854     0.344472    Uiso  ? N
   N6         1.0     0.436564     0.080576     0.089877    Uiso  ? N
   N7         1.0     0.225260     0.191488     0.837871    Uiso  ? N
   N8         1.0     0.103036     0.113455     0.588982    Uiso  ? N
   N9         1.0     0.887488     0.209230     0.373233    Uiso  ? N
   N10        1.0     0.798779     0.082760     0.145972    Uiso  ? N
   N11        1.0     0.548880     0.207715     0.860362    Uiso  ? N
   N12        1.0     0.443165     0.095283     0.595160    Uiso  ? N
   N13        1.0     0.226419     0.535454     0.345114    Uiso  ? N
   N14        1.0     0.114222     0.425612     0.109144    Uiso  ? N
   N15        1.0     0.881954     0.530174     0.836851    Uiso  ? N
   N16        1.0     0.771834     0.435243     0.589123    Uiso  ? N
   N17        1.0     0.553537     0.539236     0.343703    Uiso  ? N
   N18        1.0     0.436407     0.448672     0.089444    Uiso  ? N
   N19        1.0     0.226578     0.548817     0.839945    Uiso  ? N
   N20        1.0     0.110834     0.427916     0.594098    Uiso  ? N
   N21        1.0     0.889624     0.538611     0.348160    Uiso  ? N
   N22        1.0     0.776232     0.432694     0.099363    Uiso  ? N
   N23        1.0     0.556924     0.538689     0.842932    Uiso  ? N
   N24        1.0     0.443955     0.427390     0.595562    Uiso  ? N
   N25        1.0     0.223333     0.872677     0.366090    Uiso  ? N
   N26        1.0     0.107161     0.750701     0.096677    Uiso  ? N
   N27        1.0     0.899840     0.878274     0.848704    Uiso  ? N
   N28        1.0     0.769451     0.751818     0.595505    Uiso  ? N
   N29        1.0     0.555032     0.873153     0.347894    Uiso  ? N
   N30        1.0     0.461828     0.752937     0.092799    Uiso  ? N
   N31        1.0     0.222922     0.872118     0.857063    Uiso  ? N
   N32        1.0     0.120707     0.742513     0.586636    Uiso  ? N
   N33        1.0     0.892129     0.864511     0.354756    Uiso  ? N
   N34        1.0     0.778682     0.759896     0.107424    Uiso  ? N
   N35        1.0     0.539884     0.877937     0.837137    Uiso  ? N
   N36        1.0     0.459113     0.750797     0.591743    Uiso  ? N
