
#======================================================================
# CRYSTAL DATA
#----------------------------------------------------------------------
data_VESTA_phase_1

_chemical_name_common                  'Al   Hf   Mg   N                      '
_cell_length_a                         9.599275
_cell_length_b                         9.617527
_cell_length_c                         10.268530
_cell_angle_alpha                      90.028290
_cell_angle_beta                       89.871704
_cell_angle_gamma                      60.048119
_cell_volume                           821.389731
_space_group_name_H-M_alt              'P 1'
_space_group_IT_number                 1

loop_
_space_group_symop_operation_xyz
   'x, y, z'

loop_
   _atom_site_label
   _atom_site_occupancy
   _atom_site_fract_x
   _atom_site_fract_y
   _atom_site_fract_z
   _atom_site_adp_type
   _atom_site_U_iso_or_equiv
   _atom_site_type_symbol
   Al1        1.0     0.107446     0.102308     0.333745    Uiso  ? Al
   Al2        1.0     0.218139     0.200344     0.084066    Uiso  ? Al
   Al3        1.0     0.775588     0.105681     0.826032    Uiso  ? Al
   Al4        1.0     0.883489     0.211433     0.582349    Uiso  ? Al
   Al5        1.0     0.438445     0.094048     0.341341    Uiso  ? Al
   Al6        1.0     0.106522     0.103280     0.836917    Uiso  ? Al
   Al7        1.0     0.220060     0.210115     0.582264    Uiso  ? Al
   Al8        1.0     0.784959     0.093676     0.339087    Uiso  ? Al
   Al9        1.0     0.898008     0.199873     0.084566    Uiso  ? Al
   Al10       1.0     0.434771     0.102700     0.826923    Uiso  ? Al
   Al11       1.0     0.556805     0.204740     0.577166    Uiso  ? Al
   Al12       1.0     0.109256     0.433785     0.397343    Uiso  ? Al
   Al13       1.0     0.215157     0.541428     0.149301    Uiso  ? Al
   Al14       1.0     0.773777     0.429992     0.900905    Uiso  ? Al
   Al15       1.0     0.887350     0.535796     0.645322    Uiso  ? Al
   Al16       1.0     0.440294     0.436789     0.397031    Uiso  ? Al
   Al17       1.0     0.558272     0.543700     0.148067    Uiso  ? Al
   Al18       1.0     0.224403     0.534143     0.649591    Uiso  ? Al
   Al19       1.0     0.773994     0.433634     0.399024    Uiso  ? Al
   Al20       1.0     0.895514     0.528994     0.155819    Uiso  ? Al
   Al21       1.0     0.437101     0.441537     0.896235    Uiso  ? Al
   Al22       1.0     0.562082     0.530071     0.650120    Uiso  ? Al
   Al23       1.0     0.113291     0.755240     0.398718    Uiso  ? Al
   Al24       1.0     0.450265     0.755881     0.399875    Uiso  ? Al
   Al25       1.0     0.557799     0.859668     0.159326    Uiso  ? Al
   Al26       1.0     0.113113     0.762272     0.901477    Uiso  ? Al
   Al27       1.0     0.779073     0.756328     0.404227    Uiso  ? Al
   Al28       1.0     0.900345     0.858782     0.157713    Uiso  ? Al
   Al29       1.0     0.441663     0.761899     0.900085    Uiso  ? Al
   Al30       1.0     0.560832     0.865719     0.642844    Uiso  ? Al
   Hf1        1.0     0.556712     0.201588     0.097981    Uiso  ? Hf
   Hf2        1.0     0.777291     0.762570     0.898480    Uiso  ? Hf
   Hf3        1.0     0.222290     0.870980     0.628538    Uiso  ? Hf
   Mg1        1.0     0.113562     0.429273     0.894846    Uiso  ? Mg
   Mg2        1.0     0.226278     0.865846     0.146539    Uiso  ? Mg
   Mg3        1.0     0.886563     0.871182     0.637375    Uiso  ? Mg
   N1         1.0     0.223091     0.202135     0.396008    Uiso  ? N
   N2         1.0     0.101977     0.110804     0.150776    Uiso  ? N
   N3         1.0     0.890337     0.200526     0.896026    Uiso  ? N
   N4         1.0     0.764350     0.119624     0.641727    Uiso  ? N
   N5         1.0     0.558199     0.201373     0.379917    Uiso  ? N
   N6         1.0     0.432474     0.087978     0.151184    Uiso  ? N
   N7         1.0     0.232694     0.184495     0.898442    Uiso  ? N
   N8         1.0     0.095251     0.123076     0.647599    Uiso  ? N
   N9         1.0     0.891298     0.201715     0.394951    Uiso  ? N
   N10        1.0     0.795588     0.088806     0.150132    Uiso  ? N
   N11        1.0     0.555423     0.201323     0.891102    Uiso  ? N
   N12        1.0     0.441277     0.100788     0.634727    Uiso  ? N
   N13        1.0     0.224516     0.537510     0.336780    Uiso  ? N
   N14        1.0     0.111692     0.427372     0.103039    Uiso  ? N
   N15        1.0     0.881026     0.530471     0.830848    Uiso  ? N
   N16        1.0     0.772550     0.435742     0.586195    Uiso  ? N
   N17        1.0     0.556155     0.538403     0.335810    Uiso  ? N
   N18        1.0     0.434019     0.450475     0.088720    Uiso  ? N
   N19        1.0     0.228715     0.548130     0.833204    Uiso  ? N
   N20        1.0     0.107134     0.436031     0.589402    Uiso  ? N
   N21        1.0     0.889216     0.536457     0.342083    Uiso  ? N
   N22        1.0     0.775905     0.431930     0.091353    Uiso  ? N
   N23        1.0     0.557028     0.537065     0.837954    Uiso  ? N
   N24        1.0     0.442144     0.433136     0.585219    Uiso  ? N
   N25        1.0     0.223357     0.873944     0.371734    Uiso  ? N
   N26        1.0     0.105048     0.752780     0.087200    Uiso  ? N
   N27        1.0     0.896100     0.880155     0.845143    Uiso  ? N
   N28        1.0     0.772158     0.752614     0.588470    Uiso  ? N
   N29        1.0     0.560000     0.863661     0.346760    Uiso  ? N
   N30        1.0     0.460985     0.754235     0.084186    Uiso  ? N
   N31        1.0     0.223928     0.869318     0.840725    Uiso  ? N
   N32        1.0     0.116868     0.741800     0.580848    Uiso  ? N
   N33        1.0     0.893150     0.863056     0.347247    Uiso  ? N
   N34        1.0     0.777735     0.760804     0.104467    Uiso  ? N
   N35        1.0     0.543316     0.874250     0.831436    Uiso  ? N
   N36        1.0     0.464571     0.746733     0.586409    Uiso  ? N
