
#======================================================================
# CRYSTAL DATA
#----------------------------------------------------------------------
data_VESTA_phase_1

_chemical_name_common                  'Al   Hf   Mg   N                      '
_cell_length_a                         9.613057
_cell_length_b                         9.618319
_cell_length_c                         10.290462
_cell_angle_alpha                      89.950470
_cell_angle_beta                       89.882050
_cell_angle_gamma                      59.972584
_cell_volume                           823.768520
_space_group_name_H-M_alt              'P 1'
_space_group_IT_number                 1

loop_
_space_group_symop_operation_xyz
   'x, y, z'

loop_
   _atom_site_label
   _atom_site_occupancy
   _atom_site_fract_x
   _atom_site_fract_y
   _atom_site_fract_z
   _atom_site_adp_type
   _atom_site_U_iso_or_equiv
   _atom_site_type_symbol
   Al1        1.0     0.108337     0.101412     0.333476    Uiso  ? Al
   Al2        1.0     0.218968     0.199140     0.084659    Uiso  ? Al
   Al3        1.0     0.776221     0.105162     0.825352    Uiso  ? Al
   Al4        1.0     0.881668     0.214597     0.580850    Uiso  ? Al
   Al5        1.0     0.438421     0.094573     0.339318    Uiso  ? Al
   Al6        1.0     0.107862     0.102893     0.838123    Uiso  ? Al
   Al7        1.0     0.220646     0.209070     0.582739    Uiso  ? Al
   Al8        1.0     0.783388     0.093816     0.339079    Uiso  ? Al
   Al9        1.0     0.894997     0.207325     0.086282    Uiso  ? Al
   Al10       1.0     0.434779     0.102517     0.826142    Uiso  ? Al
   Al11       1.0     0.556992     0.203644     0.578523    Uiso  ? Al
   Al12       1.0     0.110620     0.433423     0.399261    Uiso  ? Al
   Al13       1.0     0.216296     0.540220     0.150131    Uiso  ? Al
   Al14       1.0     0.778078     0.422003     0.842470    Uiso  ? Al
   Al15       1.0     0.889682     0.538677     0.642471    Uiso  ? Al
   Al16       1.0     0.438657     0.436015     0.399015    Uiso  ? Al
   Al17       1.0     0.555563     0.543772     0.149705    Uiso  ? Al
   Al18       1.0     0.223703     0.534257     0.650683    Uiso  ? Al
   Al19       1.0     0.777392     0.425793     0.355153    Uiso  ? Al
   Al20       1.0     0.898525     0.530252     0.158621    Uiso  ? Al
   Al21       1.0     0.436692     0.442404     0.895687    Uiso  ? Al
   Al22       1.0     0.555446     0.533589     0.646135    Uiso  ? Al
   Al23       1.0     0.112794     0.755289     0.399203    Uiso  ? Al
   Al24       1.0     0.448492     0.757471     0.401004    Uiso  ? Al
   Al25       1.0     0.558431     0.858339     0.159933    Uiso  ? Al
   Al26       1.0     0.113099     0.762156     0.902653    Uiso  ? Al
   Al27       1.0     0.778010     0.757712     0.404961    Uiso  ? Al
   Al28       1.0     0.900802     0.859438     0.158428    Uiso  ? Al
   Al29       1.0     0.441967     0.761897     0.901125    Uiso  ? Al
   Al30       1.0     0.560445     0.865819     0.644308    Uiso  ? Al
   Hf1        1.0     0.558370     0.199920     0.094073    Uiso  ? Hf
   Hf2        1.0     0.777768     0.762564     0.900557    Uiso  ? Hf
   Hf3        1.0     0.220499     0.871704     0.630027    Uiso  ? Hf
   Mg1        1.0     0.115493     0.428671     0.897155    Uiso  ? Mg
   Mg2        1.0     0.226055     0.865377     0.146951    Uiso  ? Mg
   Mg3        1.0     0.886259     0.871369     0.638053    Uiso  ? Mg
   N1         1.0     0.223877     0.201099     0.396601    Uiso  ? N
   N2         1.0     0.102425     0.109885     0.150350    Uiso  ? N
   N3         1.0     0.888118     0.205664     0.896588    Uiso  ? N
   N4         1.0     0.765330     0.118958     0.641452    Uiso  ? N
   N5         1.0     0.557973     0.200310     0.382823    Uiso  ? N
   N6         1.0     0.433831     0.087774     0.151019    Uiso  ? N
   N7         1.0     0.234023     0.183600     0.899480    Uiso  ? N
   N8         1.0     0.095075     0.123112     0.648225    Uiso  ? N
   N9         1.0     0.890356     0.202846     0.395697    Uiso  ? N
   N10        1.0     0.795621     0.089446     0.149847    Uiso  ? N
   N11        1.0     0.555760     0.201626     0.888528    Uiso  ? N
   N12        1.0     0.440660     0.101237     0.637352    Uiso  ? N
   N13        1.0     0.224297     0.537235     0.337128    Uiso  ? N
   N14        1.0     0.113156     0.426313     0.103759    Uiso  ? N
   N15        1.0     0.886683     0.533361     0.830662    Uiso  ? N
   N16        1.0     0.774700     0.430925     0.616725    Uiso  ? N
   N17        1.0     0.548817     0.541528     0.339618    Uiso  ? N
   N18        1.0     0.434606     0.448999     0.087768    Uiso  ? N
   N19        1.0     0.228238     0.548656     0.833674    Uiso  ? N
   N20        1.0     0.108906     0.435118     0.589525    Uiso  ? N
   N21        1.0     0.891982     0.538809     0.346615    Uiso  ? N
   N22        1.0     0.779402     0.424740     0.135177    Uiso  ? N
   N23        1.0     0.552057     0.540574     0.836227    Uiso  ? N
   N24        1.0     0.440262     0.432512     0.586042    Uiso  ? N
   N25        1.0     0.221874     0.874458     0.371940    Uiso  ? N
   N26        1.0     0.105422     0.751851     0.087855    Uiso  ? N
   N27        1.0     0.896099     0.880666     0.846300    Uiso  ? N
   N28        1.0     0.770633     0.754857     0.588142    Uiso  ? N
   N29        1.0     0.559329     0.863502     0.346453    Uiso  ? N
   N30        1.0     0.461431     0.753327     0.084490    Uiso  ? N
   N31        1.0     0.223398     0.869751     0.841971    Uiso  ? N
   N32        1.0     0.116158     0.741813     0.581137    Uiso  ? N
   N33        1.0     0.892752     0.863769     0.347391    Uiso  ? N
   N34        1.0     0.778502     0.760490     0.105872    Uiso  ? N
   N35        1.0     0.544274     0.873218     0.832431    Uiso  ? N
   N36        1.0     0.462305     0.749638     0.586471    Uiso  ? N
