
#======================================================================
# CRYSTAL DATA
#----------------------------------------------------------------------
data_VESTA_phase_1

_chemical_name_common                  'Al   Hf   Mg   N                      '
_cell_length_a                         9.610309
_cell_length_b                         9.618497
_cell_length_c                         10.287416
_cell_angle_alpha                      89.956703
_cell_angle_beta                       89.892647
_cell_angle_gamma                      59.978168
_cell_volume                           823.351164
_space_group_name_H-M_alt              'P 1'
_space_group_IT_number                 1

loop_
_space_group_symop_operation_xyz
   'x, y, z'

loop_
   _atom_site_label
   _atom_site_occupancy
   _atom_site_fract_x
   _atom_site_fract_y
   _atom_site_fract_z
   _atom_site_adp_type
   _atom_site_U_iso_or_equiv
   _atom_site_type_symbol
   Al1        1.0     0.108193     0.101499     0.333336    Uiso  ? Al
   Al2        1.0     0.218911     0.199263     0.084673    Uiso  ? Al
   Al3        1.0     0.776173     0.105089     0.825255    Uiso  ? Al
   Al4        1.0     0.882170     0.213750     0.580968    Uiso  ? Al
   Al5        1.0     0.438407     0.094569     0.339293    Uiso  ? Al
   Al6        1.0     0.107983     0.102783     0.837972    Uiso  ? Al
   Al7        1.0     0.220605     0.209187     0.582707    Uiso  ? Al
   Al8        1.0     0.783456     0.093860     0.338891    Uiso  ? Al
   Al9        1.0     0.895291     0.206659     0.086559    Uiso  ? Al
   Al10       1.0     0.434793     0.102555     0.826144    Uiso  ? Al
   Al11       1.0     0.556898     0.203763     0.578467    Uiso  ? Al
   Al12       1.0     0.110621     0.433411     0.399062    Uiso  ? Al
   Al13       1.0     0.216236     0.540233     0.150022    Uiso  ? Al
   Al14       1.0     0.777114     0.423771     0.856679    Uiso  ? Al
   Al15       1.0     0.889004     0.538110     0.642087    Uiso  ? Al
   Al16       1.0     0.438768     0.436011     0.398871    Uiso  ? Al
   Al17       1.0     0.556761     0.543245     0.149759    Uiso  ? Al
   Al18       1.0     0.223725     0.534267     0.650548    Uiso  ? Al
   Al19       1.0     0.776130     0.428296     0.370263    Uiso  ? Al
   Al20       1.0     0.897774     0.529394     0.158615    Uiso  ? Al
   Al21       1.0     0.436662     0.442264     0.895636    Uiso  ? Al
   Al22       1.0     0.556986     0.532895     0.645975    Uiso  ? Al
   Al23       1.0     0.112784     0.755302     0.399154    Uiso  ? Al
   Al24       1.0     0.448447     0.757508     0.400883    Uiso  ? Al
   Al25       1.0     0.558426     0.858336     0.159812    Uiso  ? Al
   Al26       1.0     0.113105     0.762192     0.902682    Uiso  ? Al
   Al27       1.0     0.778044     0.757840     0.404843    Uiso  ? Al
   Al28       1.0     0.900744     0.859333     0.158380    Uiso  ? Al
   Al29       1.0     0.441856     0.762162     0.901188    Uiso  ? Al
   Al30       1.0     0.560471     0.865852     0.644196    Uiso  ? Al
   Hf1        1.0     0.558295     0.200053     0.094141    Uiso  ? Hf
   Hf2        1.0     0.777934     0.762319     0.900438    Uiso  ? Hf
   Hf3        1.0     0.220561     0.871676     0.629841    Uiso  ? Hf
   Mg1        1.0     0.115411     0.428622     0.896976    Uiso  ? Mg
   Mg2        1.0     0.226122     0.865301     0.146986    Uiso  ? Mg
   Mg3        1.0     0.886270     0.871355     0.637982    Uiso  ? Mg
   N1         1.0     0.223845     0.201127     0.396578    Uiso  ? N
   N2         1.0     0.102593     0.109788     0.150313    Uiso  ? N
   N3         1.0     0.888905     0.204068     0.896223    Uiso  ? N
   N4         1.0     0.765247     0.119122     0.641549    Uiso  ? N
   N5         1.0     0.557974     0.200330     0.382794    Uiso  ? N
   N6         1.0     0.433816     0.087802     0.150999    Uiso  ? N
   N7         1.0     0.233994     0.183629     0.899421    Uiso  ? N
   N8         1.0     0.095023     0.123241     0.648322    Uiso  ? N
   N9         1.0     0.890942     0.201787     0.395208    Uiso  ? N
   N10        1.0     0.795589     0.089328     0.149783    Uiso  ? N
   N11        1.0     0.555763     0.201682     0.888488    Uiso  ? N
   N12        1.0     0.440666     0.101248     0.637360    Uiso  ? N
   N13        1.0     0.224330     0.537263     0.337102    Uiso  ? N
   N14        1.0     0.112930     0.426445     0.103706    Uiso  ? N
   N15        1.0     0.885928     0.532512     0.829546    Uiso  ? N
   N16        1.0     0.773680     0.433092     0.604113    Uiso  ? N
   N17        1.0     0.549727     0.541105     0.339089    Uiso  ? N
   N18        1.0     0.434588     0.449126     0.087706    Uiso  ? N
   N19        1.0     0.228195     0.548703     0.833635    Uiso  ? N
   N20        1.0     0.108744     0.435212     0.589499    Uiso  ? N
   N21        1.0     0.891672     0.538597     0.345974    Uiso  ? N
   N22        1.0     0.778661     0.426414     0.125049    Uiso  ? N
   N23        1.0     0.553097     0.539848     0.835619    Uiso  ? N
   N24        1.0     0.440421     0.432613     0.586076    Uiso  ? N
   N25        1.0     0.221961     0.874376     0.371941    Uiso  ? N
   N26        1.0     0.105391     0.751897     0.087822    Uiso  ? N
   N27        1.0     0.896026     0.880515     0.846228    Uiso  ? N
   N28        1.0     0.770710     0.754875     0.588176    Uiso  ? N
   N29        1.0     0.559314     0.863531     0.346446    Uiso  ? N
   N30        1.0     0.461270     0.753363     0.084488    Uiso  ? N
   N31        1.0     0.223546     0.869590     0.841863    Uiso  ? N
   N32        1.0     0.116164     0.741821     0.581124    Uiso  ? N
   N33        1.0     0.892753     0.863722     0.347364    Uiso  ? N
   N34        1.0     0.778446     0.760596     0.105697    Uiso  ? N
   N35        1.0     0.544407     0.873231     0.832491    Uiso  ? N
   N36        1.0     0.462298     0.749623     0.586564    Uiso  ? N
