
#======================================================================
# CRYSTAL DATA
#----------------------------------------------------------------------
data_VESTA_phase_1

_chemical_name_common                  'Al   Hf   Mg   N                      '
_cell_length_a                         9.631716
_cell_length_b                         9.642631
_cell_length_c                         10.234552
_cell_angle_alpha                      90.264450
_cell_angle_beta                       90.097694
_cell_angle_gamma                      59.980930
_cell_volume                           823.020125
_space_group_name_H-M_alt              'P 1'
_space_group_IT_number                 1

loop_
_space_group_symop_operation_xyz
   'x, y, z'

loop_
   _atom_site_label
   _atom_site_occupancy
   _atom_site_fract_x
   _atom_site_fract_y
   _atom_site_fract_z
   _atom_site_adp_type
   _atom_site_U_iso_or_equiv
   _atom_site_type_symbol
   Al1        1.0     0.107767     0.100613     0.329340    Uiso  ? Al
   Al2        1.0     0.215299     0.203088     0.079238    Uiso  ? Al
   Al3        1.0     0.776749     0.107026     0.819434    Uiso  ? Al
   Al4        1.0     0.882250     0.216342     0.576919    Uiso  ? Al
   Al5        1.0     0.438694     0.094660     0.333211    Uiso  ? Al
   Al6        1.0     0.107137     0.102862     0.833088    Uiso  ? Al
   Al7        1.0     0.218149     0.215283     0.574987    Uiso  ? Al
   Al8        1.0     0.783199     0.095330     0.333641    Uiso  ? Al
   Al9        1.0     0.894849     0.206187     0.079219    Uiso  ? Al
   Al10       1.0     0.430783     0.105579     0.821308    Uiso  ? Al
   Al11       1.0     0.556872     0.203550     0.573279    Uiso  ? Al
   Al12       1.0     0.110073     0.423888     0.328940    Uiso  ? Al
   Al13       1.0     0.218309     0.543355     0.142395    Uiso  ? Al
   Al14       1.0     0.782087     0.421793     0.827283    Uiso  ? Al
   Al15       1.0     0.894093     0.531649     0.579736    Uiso  ? Al
   Al16       1.0     0.439981     0.435448     0.393545    Uiso  ? Al
   Al17       1.0     0.552810     0.544192     0.144297    Uiso  ? Al
   Al18       1.0     0.225681     0.535490     0.644611    Uiso  ? Al
   Al19       1.0     0.782499     0.423982     0.327835    Uiso  ? Al
   Al20       1.0     0.890821     0.529399     0.080442    Uiso  ? Al
   Al21       1.0     0.437017     0.443140     0.889565    Uiso  ? Al
   Al22       1.0     0.557430     0.533531     0.643635    Uiso  ? Al
   Al23       1.0     0.114696     0.753158     0.392096    Uiso  ? Al
   Al24       1.0     0.450594     0.755276     0.393615    Uiso  ? Al
   Al25       1.0     0.558463     0.859870     0.147548    Uiso  ? Al
   Al26       1.0     0.113908     0.763629     0.897192    Uiso  ? Al
   Al27       1.0     0.778513     0.759318     0.385351    Uiso  ? Al
   Al28       1.0     0.898502     0.860799     0.145550    Uiso  ? Al
   Al29       1.0     0.440963     0.761016     0.897144    Uiso  ? Al
   Al30       1.0     0.555864     0.868059     0.641666    Uiso  ? Al
   Hf1        1.0     0.558496     0.198250     0.086996    Uiso  ? Hf
   Hf2        1.0     0.776587     0.765554     0.870654    Uiso  ? Hf
   Hf3        1.0     0.223265     0.870219     0.624244    Uiso  ? Hf
   Mg1        1.0     0.113327     0.421152     0.832912    Uiso  ? Mg
   Mg2        1.0     0.225353     0.866809     0.141830    Uiso  ? Mg
   Mg3        1.0     0.889525     0.873724     0.630707    Uiso  ? Mg
   N1         1.0     0.222045     0.205196     0.388658    Uiso  ? N
   N2         1.0     0.101464     0.110285     0.144505    Uiso  ? N
   N3         1.0     0.886999     0.207337     0.890764    Uiso  ? N
   N4         1.0     0.765815     0.119748     0.633803    Uiso  ? N
   N5         1.0     0.558140     0.199888     0.376248    Uiso  ? N
   N6         1.0     0.431373     0.089181     0.144093    Uiso  ? N
   N7         1.0     0.228949     0.190808     0.895394    Uiso  ? N
   N8         1.0     0.097918     0.120016     0.639843    Uiso  ? N
   N9         1.0     0.888268     0.207467     0.390587    Uiso  ? N
   N10        1.0     0.795342     0.090630     0.143819    Uiso  ? N
   N11        1.0     0.554960     0.202590     0.880765    Uiso  ? N
   N12        1.0     0.440289     0.100929     0.629961    Uiso  ? N
   N13        1.0     0.227070     0.537856     0.330695    Uiso  ? N
   N14        1.0     0.108698     0.423472     0.137419    Uiso  ? N
   N15        1.0     0.884878     0.523021     0.895860    Uiso  ? N
   N16        1.0     0.783379     0.427079     0.637533    Uiso  ? N
   N17        1.0     0.550809     0.539705     0.334091    Uiso  ? N
   N18        1.0     0.435274     0.446573     0.082056    Uiso  ? N
   N19        1.0     0.228855     0.551946     0.830635    Uiso  ? N
   N20        1.0     0.111227     0.427608     0.625060    Uiso  ? N
   N21        1.0     0.890411     0.533791     0.387075    Uiso  ? N
   N22        1.0     0.781232     0.423508     0.139738    Uiso  ? N
   N23        1.0     0.551822     0.541645     0.833003    Uiso  ? N
   N24        1.0     0.442908     0.432172     0.581117    Uiso  ? N
   N25        1.0     0.222843     0.874383     0.366354    Uiso  ? N
   N26        1.0     0.106092     0.752337     0.082576    Uiso  ? N
   N27        1.0     0.899503     0.885572     0.842709    Uiso  ? N
   N28        1.0     0.773730     0.751614     0.616640    Uiso  ? N
   N29        1.0     0.560416     0.863412     0.339231    Uiso  ? N
   N30        1.0     0.459837     0.752178     0.081058    Uiso  ? N
   N31        1.0     0.223442     0.871286     0.837130    Uiso  ? N
   N32        1.0     0.117716     0.741153     0.574182    Uiso  ? N
   N33        1.0     0.893219     0.863772     0.340148    Uiso  ? N
   N34        1.0     0.774721     0.766956     0.091377    Uiso  ? N
   N35        1.0     0.533564     0.879694     0.830985    Uiso  ? N
   N36        1.0     0.465962     0.746877     0.579488    Uiso  ? N
