
#======================================================================
# CRYSTAL DATA
#----------------------------------------------------------------------
data_VESTA_phase_1

_chemical_name_common                  'Al   Hf   Mg   N                      '
_cell_length_a                         9.603112
_cell_length_b                         9.631466
_cell_length_c                         10.085861
_cell_angle_alpha                      90.061111
_cell_angle_beta                       89.752083
_cell_angle_gamma                      59.967869
_cell_volume                           807.607266
_space_group_name_H-M_alt              'P 1'
_space_group_IT_number                 1

loop_
_space_group_symop_operation_xyz
   'x, y, z'

loop_
   _atom_site_label
   _atom_site_occupancy
   _atom_site_fract_x
   _atom_site_fract_y
   _atom_site_fract_z
   _atom_site_adp_type
   _atom_site_U_iso_or_equiv
   _atom_site_type_symbol
   Al1        1.0     0.109467     0.099768     0.399674    Uiso  ? Al
   Al2        1.0     0.216128     0.207426     0.154302    Uiso  ? Al
   Al3        1.0     0.780756     0.097272     0.858962    Uiso  ? Al
   Al4        1.0     0.883566     0.218571     0.648601    Uiso  ? Al
   Al5        1.0     0.442308     0.093488     0.404969    Uiso  ? Al
   Al6        1.0     0.108837     0.099106     0.907654    Uiso  ? Al
   Al7        1.0     0.219213     0.211520     0.652608    Uiso  ? Al
   Al8        1.0     0.779385     0.096487     0.401178    Uiso  ? Al
   Al9        1.0     0.894135     0.206711     0.154557    Uiso  ? Al
   Al10       1.0     0.433309     0.092971     0.896911    Uiso  ? Al
   Al11       1.0     0.548738     0.210296     0.650288    Uiso  ? Al
   Al12       1.0     0.113164     0.427056     0.401058    Uiso  ? Al
   Al13       1.0     0.217533     0.541047     0.154109    Uiso  ? Al
   Al14       1.0     0.776974     0.424741     0.904184    Uiso  ? Al
   Al15       1.0     0.887871     0.535337     0.647592    Uiso  ? Al
   Al16       1.0     0.442935     0.430740     0.405617    Uiso  ? Al
   Al17       1.0     0.558420     0.542429     0.152476    Uiso  ? Al
   Al18       1.0     0.222306     0.535407     0.654067    Uiso  ? Al
   Al19       1.0     0.776838     0.428747     0.402510    Uiso  ? Al
   Al20       1.0     0.894284     0.532480     0.158519    Uiso  ? Al
   Al21       1.0     0.438691     0.438386     0.897422    Uiso  ? Al
   Al22       1.0     0.560511     0.533707     0.652649    Uiso  ? Al
   Al23       1.0     0.115440     0.755232     0.400417    Uiso  ? Al
   Al24       1.0     0.447563     0.758054     0.400398    Uiso  ? Al
   Al25       1.0     0.554577     0.866311     0.157832    Uiso  ? Al
   Al26       1.0     0.114156     0.759557     0.910059    Uiso  ? Al
   Al27       1.0     0.776986     0.757643     0.405891    Uiso  ? Al
   Al28       1.0     0.896750     0.866185     0.161397    Uiso  ? Al
   Al29       1.0     0.444021     0.757991     0.907239    Uiso  ? Al
   Al30       1.0     0.556057     0.871210     0.646991    Uiso  ? Al
   Hf1        1.0     0.556654     0.204583     0.139079    Uiso  ? Hf
   Hf2        1.0     0.778597     0.761423     0.898913    Uiso  ? Hf
   Hf3        1.0     0.219846     0.874404     0.644589    Uiso  ? Hf
   Mg1        1.0     0.116339     0.422846     0.902797    Uiso  ? Mg
   Mg2        1.0     0.222051     0.873329     0.153052    Uiso  ? Mg
   Mg3        1.0     0.887972     0.869450     0.636506    Uiso  ? Mg
   N1         1.0     0.224953     0.204425     0.345395    Uiso  ? N
   N2         1.0     0.104315     0.109475     0.093695    Uiso  ? N
   N3         1.0     0.890187     0.209523     0.840165    Uiso  ? N
   N4         1.0     0.768645     0.112619     0.603763    Uiso  ? N
   N5         1.0     0.553558     0.206208     0.349554    Uiso  ? N
   N6         1.0     0.437019     0.081289     0.088952    Uiso  ? N
   N7         1.0     0.225041     0.191752     0.837125    Uiso  ? N
   N8         1.0     0.099519     0.116154     0.588790    Uiso  ? N
   N9         1.0     0.888693     0.208524     0.346166    Uiso  ? N
   N10        1.0     0.797148     0.083905     0.109955    Uiso  ? N
   N11        1.0     0.549984     0.207011     0.851297    Uiso  ? N
   N12        1.0     0.443277     0.094450     0.594391    Uiso  ? N
   N13        1.0     0.226315     0.535643     0.344314    Uiso  ? N
   N14        1.0     0.113959     0.425748     0.108670    Uiso  ? N
   N15        1.0     0.882255     0.529698     0.836568    Uiso  ? N
   N16        1.0     0.775019     0.430664     0.590613    Uiso  ? N
   N17        1.0     0.555871     0.537418     0.343644    Uiso  ? N
   N18        1.0     0.437524     0.446258     0.088826    Uiso  ? N
   N19        1.0     0.226684     0.548735     0.840068    Uiso  ? N
   N20        1.0     0.111531     0.427983     0.593322    Uiso  ? N
   N21        1.0     0.889115     0.537327     0.348120    Uiso  ? N
   N22        1.0     0.778880     0.426695     0.095785    Uiso  ? N
   N23        1.0     0.557333     0.538211     0.842759    Uiso  ? N
   N24        1.0     0.444011     0.428069     0.595569    Uiso  ? N
   N25        1.0     0.222657     0.874263     0.366744    Uiso  ? N
   N26        1.0     0.105521     0.751982     0.096967    Uiso  ? N
   N27        1.0     0.900076     0.877534     0.844707    Uiso  ? N
   N28        1.0     0.769993     0.751858     0.594386    Uiso  ? N
   N29        1.0     0.554901     0.872974     0.347019    Uiso  ? N
   N30        1.0     0.461404     0.752435     0.092761    Uiso  ? N
   N31        1.0     0.221767     0.873053     0.855589    Uiso  ? N
   N32        1.0     0.121114     0.742061     0.585716    Uiso  ? N
   N33        1.0     0.889390     0.870331     0.354311    Uiso  ? N
   N34        1.0     0.779120     0.759724     0.107937    Uiso  ? N
   N35        1.0     0.540331     0.877297     0.836954    Uiso  ? N
   N36        1.0     0.460257     0.750052     0.590892    Uiso  ? N
