
#======================================================================
# CRYSTAL DATA
#----------------------------------------------------------------------
data_VESTA_phase_1

_chemical_name_common                  'Al   Hf   Mg   N                      '
_cell_length_a                         9.635122
_cell_length_b                         9.675011
_cell_length_c                         10.132737
_cell_angle_alpha                      90.170990
_cell_angle_beta                       90.112930
_cell_angle_gamma                      60.031685
_cell_volume                           818.281373
_space_group_name_H-M_alt              'P 1'
_space_group_IT_number                 1

loop_
_space_group_symop_operation_xyz
   'x, y, z'

loop_
   _atom_site_label
   _atom_site_occupancy
   _atom_site_fract_x
   _atom_site_fract_y
   _atom_site_fract_z
   _atom_site_adp_type
   _atom_site_U_iso_or_equiv
   _atom_site_type_symbol
   Al1        1.0     0.106954     0.102288     0.324019    Uiso  ? Al
   Al2        1.0     0.215130     0.203383     0.072681    Uiso  ? Al
   Al3        1.0     0.777315     0.102240     0.818338    Uiso  ? Al
   Al4        1.0     0.882196     0.215264     0.572523    Uiso  ? Al
   Al5        1.0     0.440375     0.090431     0.326371    Uiso  ? Al
   Al6        1.0     0.107931     0.102158     0.826558    Uiso  ? Al
   Al7        1.0     0.218196     0.215105     0.570852    Uiso  ? Al
   Al8        1.0     0.786986     0.090128     0.324770    Uiso  ? Al
   Al9        1.0     0.894168     0.207885     0.072583    Uiso  ? Al
   Al10       1.0     0.437290     0.096938     0.818806    Uiso  ? Al
   Al11       1.0     0.557952     0.202705     0.569699    Uiso  ? Al
   Al12       1.0     0.110530     0.423629     0.324291    Uiso  ? Al
   Al13       1.0     0.218033     0.543549     0.137602    Uiso  ? Al
   Al14       1.0     0.782642     0.421688     0.821727    Uiso  ? Al
   Al15       1.0     0.891928     0.535616     0.566627    Uiso  ? Al
   Al16       1.0     0.440332     0.434253     0.387955    Uiso  ? Al
   Al17       1.0     0.552961     0.543334     0.139901    Uiso  ? Al
   Al18       1.0     0.224943     0.535643     0.638139    Uiso  ? Al
   Al19       1.0     0.782876     0.423246     0.322874    Uiso  ? Al
   Al20       1.0     0.889651     0.531174     0.077255    Uiso  ? Al
   Al21       1.0     0.438289     0.440132     0.883408    Uiso  ? Al
   Al22       1.0     0.557540     0.534129     0.636706    Uiso  ? Al
   Al23       1.0     0.113479     0.753738     0.383423    Uiso  ? Al
   Al24       1.0     0.449663     0.754335     0.383366    Uiso  ? Al
   Al25       1.0     0.552990     0.870694     0.076694    Uiso  ? Al
   Al26       1.0     0.120097     0.759486     0.892439    Uiso  ? Al
   Al27       1.0     0.780183     0.760269     0.315467    Uiso  ? Al
   Al28       1.0     0.892809     0.871721     0.082144    Uiso  ? Al
   Al29       1.0     0.439430     0.756335     0.893052    Uiso  ? Al
   Al30       1.0     0.563934     0.871752     0.565942    Uiso  ? Al
   Hf1        1.0     0.555089     0.202929     0.087981    Uiso  ? Hf
   Hf2        1.0     0.778546     0.759643     0.830417    Uiso  ? Hf
   Hf3        1.0     0.223887     0.870853     0.614598    Uiso  ? Hf
   Mg1        1.0     0.113129     0.420560     0.829255    Uiso  ? Mg
   Mg2        1.0     0.223533     0.868995     0.138538    Uiso  ? Mg
   Mg3        1.0     0.878546     0.877807     0.569651    Uiso  ? Mg
   N1         1.0     0.222772     0.205195     0.382580    Uiso  ? N
   N2         1.0     0.100839     0.111249     0.137375    Uiso  ? N
   N3         1.0     0.887722     0.206967     0.882637    Uiso  ? N
   N4         1.0     0.769295     0.112378     0.631475    Uiso  ? N
   N5         1.0     0.557610     0.201488     0.365734    Uiso  ? N
   N6         1.0     0.432992     0.084366     0.137957    Uiso  ? N
   N7         1.0     0.230062     0.189882     0.886762    Uiso  ? N
   N8         1.0     0.097928     0.120100     0.633130    Uiso  ? N
   N9         1.0     0.887679     0.207179     0.384226    Uiso  ? N
   N10        1.0     0.795668     0.089936     0.134590    Uiso  ? N
   N11        1.0     0.554044     0.203863     0.877691    Uiso  ? N
   N12        1.0     0.445223     0.092975     0.626309    Uiso  ? N
   N13        1.0     0.226627     0.537639     0.327019    Uiso  ? N
   N14        1.0     0.110589     0.422296     0.129886    Uiso  ? N
   N15        1.0     0.881276     0.528154     0.892183    Uiso  ? N
   N16        1.0     0.783543     0.427771     0.628986    Uiso  ? N
   N17        1.0     0.551952     0.538584     0.330591    Uiso  ? N
   N18        1.0     0.434357     0.447851     0.077831    Uiso  ? N
   N19        1.0     0.228539     0.550740     0.825809    Uiso  ? N
   N20        1.0     0.109443     0.428871     0.616906    Uiso  ? N
   N21        1.0     0.887170     0.539894     0.375033    Uiso  ? N
   N22        1.0     0.780493     0.422753     0.132826    Uiso  ? N
   N23        1.0     0.552646     0.540691     0.827959    Uiso  ? N
   N24        1.0     0.444407     0.428983     0.577543    Uiso  ? N
   N25        1.0     0.222139     0.875922     0.361287    Uiso  ? N
   N26        1.0     0.111946     0.750103     0.079953    Uiso  ? N
   N27        1.0     0.889876     0.889278     0.882851    Uiso  ? N
   N28        1.0     0.772832     0.751484     0.627431    Uiso  ? N
   N29        1.0     0.561252     0.872427     0.374619    Uiso  ? N
   N30        1.0     0.455263     0.749338     0.080965    Uiso  ? N
   N31        1.0     0.223517     0.871287     0.830693    Uiso  ? N
   N32        1.0     0.118635     0.740871     0.571478    Uiso  ? N
   N33        1.0     0.888566     0.870858     0.359322    Uiso  ? N
   N34        1.0     0.776713     0.761025     0.121862    Uiso  ? N
   N35        1.0     0.540536     0.884493     0.882730    Uiso  ? N
   N36        1.0     0.466161     0.745053     0.575379    Uiso  ? N
