
#======================================================================
# CRYSTAL DATA
#----------------------------------------------------------------------
data_VESTA_phase_1

_chemical_name_common                  'Al   Hf   Mg   N                      '
_cell_length_a                         9.633619
_cell_length_b                         9.646107
_cell_length_c                         10.234803
_cell_angle_alpha                      90.284294
_cell_angle_beta                       90.115814
_cell_angle_gamma                      59.987778
_cell_volume                           823.555292
_space_group_name_H-M_alt              'P 1'
_space_group_IT_number                 1

loop_
_space_group_symop_operation_xyz
   'x, y, z'

loop_
   _atom_site_label
   _atom_site_occupancy
   _atom_site_fract_x
   _atom_site_fract_y
   _atom_site_fract_z
   _atom_site_adp_type
   _atom_site_U_iso_or_equiv
   _atom_site_type_symbol
   Al1        1.0     0.107888     0.100444     0.329399    Uiso  ? Al
   Al2        1.0     0.214922     0.203414     0.079140    Uiso  ? Al
   Al3        1.0     0.776845     0.106921     0.819691    Uiso  ? Al
   Al4        1.0     0.882347     0.216300     0.577158    Uiso  ? Al
   Al5        1.0     0.438631     0.094907     0.333187    Uiso  ? Al
   Al6        1.0     0.107053     0.102924     0.833082    Uiso  ? Al
   Al7        1.0     0.218079     0.215273     0.575176    Uiso  ? Al
   Al8        1.0     0.783110     0.095711     0.333487    Uiso  ? Al
   Al9        1.0     0.894871     0.206446     0.079022    Uiso  ? Al
   Al10       1.0     0.430391     0.106002     0.821874    Uiso  ? Al
   Al11       1.0     0.556883     0.203524     0.573468    Uiso  ? Al
   Al12       1.0     0.110930     0.423331     0.329359    Uiso  ? Al
   Al13       1.0     0.218402     0.543162     0.142504    Uiso  ? Al
   Al14       1.0     0.782325     0.422047     0.827294    Uiso  ? Al
   Al15       1.0     0.892575     0.534785     0.580031    Uiso  ? Al
   Al16       1.0     0.440048     0.435463     0.393687    Uiso  ? Al
   Al17       1.0     0.552905     0.544024     0.144401    Uiso  ? Al
   Al18       1.0     0.225471     0.535509     0.644557    Uiso  ? Al
   Al19       1.0     0.782265     0.423461     0.328114    Uiso  ? Al
   Al20       1.0     0.890910     0.529206     0.080867    Uiso  ? Al
   Al21       1.0     0.436906     0.443387     0.889394    Uiso  ? Al
   Al22       1.0     0.557777     0.533486     0.643657    Uiso  ? Al
   Al23       1.0     0.115108     0.753090     0.392321    Uiso  ? Al
   Al24       1.0     0.450732     0.755275     0.393981    Uiso  ? Al
   Al25       1.0     0.555860     0.861215     0.145816    Uiso  ? Al
   Al26       1.0     0.113845     0.763761     0.897204    Uiso  ? Al
   Al27       1.0     0.781014     0.755670     0.357357    Uiso  ? Al
   Al28       1.0     0.899687     0.862188     0.143224    Uiso  ? Al
   Al29       1.0     0.440622     0.761233     0.897265    Uiso  ? Al
   Al30       1.0     0.556159     0.867712     0.643075    Uiso  ? Al
   Hf1        1.0     0.558306     0.198619     0.086647    Uiso  ? Hf
   Hf2        1.0     0.777360     0.763620     0.862582    Uiso  ? Hf
   Hf3        1.0     0.223374     0.870159     0.624444    Uiso  ? Hf
   Mg1        1.0     0.112734     0.421451     0.832796    Uiso  ? Mg
   Mg2        1.0     0.225418     0.866719     0.142046    Uiso  ? Mg
   Mg3        1.0     0.888453     0.873275     0.629063    Uiso  ? Mg
   N1         1.0     0.222119     0.205032     0.388773    Uiso  ? N
   N2         1.0     0.101508     0.110152     0.144557    Uiso  ? N
   N3         1.0     0.886920     0.207674     0.890608    Uiso  ? N
   N4         1.0     0.766019     0.119224     0.633797    Uiso  ? N
   N5         1.0     0.558168     0.199955     0.376212    Uiso  ? N
   N6         1.0     0.431052     0.089672     0.143825    Uiso  ? N
   N7         1.0     0.228255     0.191520     0.895362    Uiso  ? N
   N8         1.0     0.098085     0.119759     0.639805    Uiso  ? N
   N9         1.0     0.888446     0.207392     0.390730    Uiso  ? N
   N10        1.0     0.795132     0.091171     0.143558    Uiso  ? N
   N11        1.0     0.554602     0.203345     0.880632    Uiso  ? N
   N12        1.0     0.440634     0.100536     0.630137    Uiso  ? N
   N13        1.0     0.227106     0.537928     0.330895    Uiso  ? N
   N14        1.0     0.109002     0.423108     0.138074    Uiso  ? N
   N15        1.0     0.884872     0.522732     0.897710    Uiso  ? N
   N16        1.0     0.783653     0.427046     0.637027    Uiso  ? N
   N17        1.0     0.550807     0.539807     0.334321    Uiso  ? N
   N18        1.0     0.435244     0.446626     0.082122    Uiso  ? N
   N19        1.0     0.228611     0.552049     0.830540    Uiso  ? N
   N20        1.0     0.110895     0.427788     0.624335    Uiso  ? N
   N21        1.0     0.889646     0.535266     0.387009    Uiso  ? N
   N22        1.0     0.781279     0.423117     0.140303    Uiso  ? N
   N23        1.0     0.551867     0.541844     0.832928    Uiso  ? N
   N24        1.0     0.442931     0.432220     0.581178    Uiso  ? N
   N25        1.0     0.223057     0.874305     0.366558    Uiso  ? N
   N26        1.0     0.107232     0.751823     0.082487    Uiso  ? N
   N27        1.0     0.899076     0.886706     0.845657    Uiso  ? N
   N28        1.0     0.775709     0.747673     0.636472    Uiso  ? N
   N29        1.0     0.558928     0.864161     0.338896    Uiso  ? N
   N30        1.0     0.459244     0.751745     0.081023    Uiso  ? N
   N31        1.0     0.223245     0.871343     0.836983    Uiso  ? N
   N32        1.0     0.117379     0.741343     0.574336    Uiso  ? N
   N33        1.0     0.894476     0.864680     0.339742    Uiso  ? N
   N34        1.0     0.776300     0.763878     0.101649    Uiso  ? N
   N35        1.0     0.531574     0.881552     0.833804    Uiso  ? N
   N36        1.0     0.466495     0.747022     0.579644    Uiso  ? N
