
#======================================================================
# CRYSTAL DATA
#----------------------------------------------------------------------
data_VESTA_phase_1

_chemical_name_common                  'Al   Hf   Mg   N                      '
_cell_length_a                         9.624678
_cell_length_b                         9.647273
_cell_length_c                         10.102149
_cell_angle_alpha                      89.986481
_cell_angle_beta                       89.627495
_cell_angle_gamma                      60.026760
_cell_volume                           812.531877
_space_group_name_H-M_alt              'P 1'
_space_group_IT_number                 1

loop_
_space_group_symop_operation_xyz
   'x, y, z'

loop_
   _atom_site_label
   _atom_site_occupancy
   _atom_site_fract_x
   _atom_site_fract_y
   _atom_site_fract_z
   _atom_site_adp_type
   _atom_site_U_iso_or_equiv
   _atom_site_type_symbol
   Al1        1.0     0.113798     0.097028     0.397011    Uiso  ? Al
   Al2        1.0     0.217627     0.207834     0.156780    Uiso  ? Al
   Al3        1.0     0.784036     0.100971     0.830862    Uiso  ? Al
   Al4        1.0     0.879547     0.215339     0.600157    Uiso  ? Al
   Al5        1.0     0.443562     0.094523     0.405162    Uiso  ? Al
   Al6        1.0     0.111310     0.097395     0.910370    Uiso  ? Al
   Al7        1.0     0.218176     0.211600     0.653743    Uiso  ? Al
   Al8        1.0     0.782361     0.092940     0.346749    Uiso  ? Al
   Al9        1.0     0.895052     0.207976     0.125204    Uiso  ? Al
   Al10       1.0     0.432735     0.092750     0.897524    Uiso  ? Al
   Al11       1.0     0.545078     0.212015     0.653699    Uiso  ? Al
   Al12       1.0     0.113133     0.427235     0.402174    Uiso  ? Al
   Al13       1.0     0.217841     0.540732     0.155111    Uiso  ? Al
   Al14       1.0     0.776283     0.425760     0.904370    Uiso  ? Al
   Al15       1.0     0.887403     0.534754     0.648767    Uiso  ? Al
   Al16       1.0     0.443472     0.429108     0.405009    Uiso  ? Al
   Al17       1.0     0.556759     0.544449     0.153543    Uiso  ? Al
   Al18       1.0     0.221699     0.535538     0.654330    Uiso  ? Al
   Al19       1.0     0.773286     0.434783     0.399110    Uiso  ? Al
   Al20       1.0     0.894617     0.533520     0.159333    Uiso  ? Al
   Al21       1.0     0.437780     0.439724     0.897793    Uiso  ? Al
   Al22       1.0     0.559893     0.533822     0.653404    Uiso  ? Al
   Al23       1.0     0.116250     0.754307     0.401679    Uiso  ? Al
   Al24       1.0     0.446765     0.758759     0.401580    Uiso  ? Al
   Al25       1.0     0.554498     0.866362     0.158690    Uiso  ? Al
   Al26       1.0     0.113573     0.759670     0.910000    Uiso  ? Al
   Al27       1.0     0.776676     0.757698     0.407500    Uiso  ? Al
   Al28       1.0     0.900762     0.857534     0.160968    Uiso  ? Al
   Al29       1.0     0.444537     0.757993     0.907639    Uiso  ? Al
   Al30       1.0     0.555479     0.871593     0.647515    Uiso  ? Al
   Hf1        1.0     0.554466     0.205871     0.129726    Uiso  ? Hf
   Hf2        1.0     0.778138     0.762516     0.898145    Uiso  ? Hf
   Hf3        1.0     0.219474     0.874298     0.646963    Uiso  ? Hf
   Mg1        1.0     0.115806     0.422738     0.902795    Uiso  ? Mg
   Mg2        1.0     0.223973     0.870702     0.154156    Uiso  ? Mg
   Mg3        1.0     0.887290     0.869431     0.635149    Uiso  ? Mg
   N1         1.0     0.226065     0.205043     0.346704    Uiso  ? N
   N2         1.0     0.111485     0.105320     0.098694    Uiso  ? N
   N3         1.0     0.889863     0.206627     0.876762    Uiso  ? N
   N4         1.0     0.766558     0.113467     0.636701    Uiso  ? N
   N5         1.0     0.550395     0.207881     0.344501    Uiso  ? N
   N6         1.0     0.436553     0.080544     0.089858    Uiso  ? N
   N7         1.0     0.225206     0.191418     0.837865    Uiso  ? N
   N8         1.0     0.102720     0.113669     0.588495    Uiso  ? N
   N9         1.0     0.888101     0.209681     0.367991    Uiso  ? N
   N10        1.0     0.798674     0.082545     0.145356    Uiso  ? N
   N11        1.0     0.548871     0.207678     0.860243    Uiso  ? N
   N12        1.0     0.443039     0.095261     0.595126    Uiso  ? N
   N13        1.0     0.226424     0.535456     0.345124    Uiso  ? N
   N14        1.0     0.114230     0.425609     0.109143    Uiso  ? N
   N15        1.0     0.881896     0.530238     0.836882    Uiso  ? N
   N16        1.0     0.771933     0.435020     0.588842    Uiso  ? N
   N17        1.0     0.553655     0.539154     0.343725    Uiso  ? N
   N18        1.0     0.436422     0.448670     0.089444    Uiso  ? N
   N19        1.0     0.226581     0.548796     0.839970    Uiso  ? N
   N20        1.0     0.110820     0.427920     0.594079    Uiso  ? N
   N21        1.0     0.889590     0.538601     0.348160    Uiso  ? N
   N22        1.0     0.776493     0.432160     0.099148    Uiso  ? N
   N23        1.0     0.557010     0.538665     0.842958    Uiso  ? N
   N24        1.0     0.443928     0.427411     0.595568    Uiso  ? N
   N25        1.0     0.223295     0.872762     0.366096    Uiso  ? N
   N26        1.0     0.107169     0.750678     0.096704    Uiso  ? N
   N27        1.0     0.899835     0.878192     0.848599    Uiso  ? N
   N28        1.0     0.769419     0.751761     0.595488    Uiso  ? N
   N29        1.0     0.555032     0.873155     0.347907    Uiso  ? N
   N30        1.0     0.461871     0.752909     0.092826    Uiso  ? N
   N31        1.0     0.222879     0.872165     0.857073    Uiso  ? N
   N32        1.0     0.120791     0.742499     0.586663    Uiso  ? N
   N33        1.0     0.892152     0.864499     0.354799    Uiso  ? N
   N34        1.0     0.778688     0.759843     0.107455    Uiso  ? N
   N35        1.0     0.539860     0.877929     0.837115    Uiso  ? N
   N36        1.0     0.459104     0.750768     0.591743    Uiso  ? N
