
#======================================================================
# CRYSTAL DATA
#----------------------------------------------------------------------
data_VESTA_phase_1

_chemical_name_common                  'Al   Hf   Mg   N                      '
_cell_length_a                         9.630969
_cell_length_b                         9.660979
_cell_length_c                         10.135803
_cell_angle_alpha                      90.145119
_cell_angle_beta                       89.912125
_cell_angle_gamma                      60.102177
_cell_volume                           817.565425
_space_group_name_H-M_alt              'P 1'
_space_group_IT_number                 1

loop_
_space_group_symop_operation_xyz
   'x, y, z'

loop_
   _atom_site_label
   _atom_site_occupancy
   _atom_site_fract_x
   _atom_site_fract_y
   _atom_site_fract_z
   _atom_site_adp_type
   _atom_site_U_iso_or_equiv
   _atom_site_type_symbol
   Al1        1.0     0.109206     0.097890     0.324759    Uiso  ? Al
   Al2        1.0     0.215312     0.205090     0.076528    Uiso  ? Al
   Al3        1.0     0.776495     0.102726     0.821869    Uiso  ? Al
   Al4        1.0     0.882468     0.214663     0.575213    Uiso  ? Al
   Al5        1.0     0.440873     0.089191     0.330996    Uiso  ? Al
   Al6        1.0     0.106748     0.102209     0.828340    Uiso  ? Al
   Al7        1.0     0.218351     0.214892     0.573890    Uiso  ? Al
   Al8        1.0     0.787934     0.089403     0.327692    Uiso  ? Al
   Al9        1.0     0.893904     0.207915     0.075800    Uiso  ? Al
   Al10       1.0     0.436858     0.096273     0.824080    Uiso  ? Al
   Al11       1.0     0.557736     0.200735     0.573678    Uiso  ? Al
   Al12       1.0     0.110731     0.423250     0.327603    Uiso  ? Al
   Al13       1.0     0.217376     0.546267     0.142053    Uiso  ? Al
   Al14       1.0     0.780091     0.422388     0.824817    Uiso  ? Al
   Al15       1.0     0.893329     0.535737     0.569234    Uiso  ? Al
   Al16       1.0     0.440214     0.433382     0.391507    Uiso  ? Al
   Al17       1.0     0.558807     0.542431     0.110071    Uiso  ? Al
   Al18       1.0     0.225487     0.534737     0.641984    Uiso  ? Al
   Al19       1.0     0.779697     0.425283     0.328017    Uiso  ? Al
   Al20       1.0     0.890920     0.532269     0.080931    Uiso  ? Al
   Al21       1.0     0.438358     0.438774     0.887349    Uiso  ? Al
   Al22       1.0     0.563202     0.531723     0.601842    Uiso  ? Al
   Al23       1.0     0.113170     0.753547     0.387173    Uiso  ? Al
   Al24       1.0     0.446254     0.761418     0.326920    Uiso  ? Al
   Al25       1.0     0.551147     0.868582     0.079453    Uiso  ? Al
   Al26       1.0     0.118235     0.756550     0.890282    Uiso  ? Al
   Al27       1.0     0.779267     0.760414     0.320177    Uiso  ? Al
   Al28       1.0     0.892708     0.871254     0.082878    Uiso  ? Al
   Al29       1.0     0.445380     0.757702     0.826616    Uiso  ? Al
   Al30       1.0     0.560755     0.868884     0.570585    Uiso  ? Al
   Hf1        1.0     0.555349     0.202083     0.093407    Uiso  ? Hf
   Hf2        1.0     0.777933     0.758305     0.833083    Uiso  ? Hf
   Hf3        1.0     0.221073     0.875584     0.600278    Uiso  ? Hf
   Mg1        1.0     0.113402     0.418811     0.831454    Uiso  ? Mg
   Mg2        1.0     0.223962     0.878066     0.086501    Uiso  ? Mg
   Mg3        1.0     0.877002     0.878371     0.573430    Uiso  ? Mg
   N1         1.0     0.222777     0.204463     0.385443    Uiso  ? N
   N2         1.0     0.101311     0.110607     0.139465    Uiso  ? N
   N3         1.0     0.887117     0.207130     0.886361    Uiso  ? N
   N4         1.0     0.768518     0.113063     0.635242    Uiso  ? N
   N5         1.0     0.558266     0.200079     0.369272    Uiso  ? N
   N6         1.0     0.433093     0.083753     0.141917    Uiso  ? N
   N7         1.0     0.229614     0.189267     0.891003    Uiso  ? N
   N8         1.0     0.096291     0.121673     0.637895    Uiso  ? N
   N9         1.0     0.889235     0.205957     0.386723    Uiso  ? N
   N10        1.0     0.796379     0.088972     0.137627    Uiso  ? N
   N11        1.0     0.553971     0.202060     0.883085    Uiso  ? N
   N12        1.0     0.444831     0.091849     0.631401    Uiso  ? N
   N13        1.0     0.226837     0.538574     0.330652    Uiso  ? N
   N14        1.0     0.110764     0.423218     0.133980    Uiso  ? N
   N15        1.0     0.882556     0.527291     0.895693    Uiso  ? N
   N16        1.0     0.783440     0.427889     0.632780    Uiso  ? N
   N17        1.0     0.557514     0.539266     0.367812    Uiso  ? N
   N18        1.0     0.433303     0.447114     0.084517    Uiso  ? N
   N19        1.0     0.230226     0.547624     0.828244    Uiso  ? N
   N20        1.0     0.109450     0.428329     0.620142    Uiso  ? N
   N21        1.0     0.888264     0.539615     0.378235    Uiso  ? N
   N22        1.0     0.779850     0.423498     0.138038    Uiso  ? N
   N23        1.0     0.559021     0.537416     0.859452    Uiso  ? N
   N24        1.0     0.442932     0.426074     0.582557    Uiso  ? N
   N25        1.0     0.224296     0.877468     0.381089    Uiso  ? N
   N26        1.0     0.111438     0.749885     0.079277    Uiso  ? N
   N27        1.0     0.887896     0.888661     0.884431    Uiso  ? N
   N28        1.0     0.772180     0.751148     0.630301    Uiso  ? N
   N29        1.0     0.558644     0.870610     0.383135    Uiso  ? N
   N30        1.0     0.456411     0.756845     0.139803    Uiso  ? N
   N31        1.0     0.219520     0.874729     0.844575    Uiso  ? N
   N32        1.0     0.117155     0.740302     0.577154    Uiso  ? N
   N33        1.0     0.888545     0.870699     0.363983    Uiso  ? N
   N34        1.0     0.775989     0.761972     0.125504    Uiso  ? N
   N35        1.0     0.538184     0.880128     0.889697    Uiso  ? N
   N36        1.0     0.465119     0.752125     0.634650    Uiso  ? N
