
#======================================================================
# CRYSTAL DATA
#----------------------------------------------------------------------
data_VESTA_phase_1

_chemical_name_common                  'Al   Hf   Mg   N                      '
_cell_length_a                         9.640836
_cell_length_b                         9.621849
_cell_length_c                         10.299231
_cell_angle_alpha                      89.923363
_cell_angle_beta                       89.887115
_cell_angle_gamma                      59.891586
_cell_volume                           826.479864
_space_group_name_H-M_alt              'P 1'
_space_group_IT_number                 1

loop_
_space_group_symop_operation_xyz
   'x, y, z'

loop_
   _atom_site_label
   _atom_site_occupancy
   _atom_site_fract_x
   _atom_site_fract_y
   _atom_site_fract_z
   _atom_site_adp_type
   _atom_site_U_iso_or_equiv
   _atom_site_type_symbol
   Al1        1.0     0.107777     0.100164     0.334762    Uiso  ? Al
   Al2        1.0     0.218349     0.199948     0.086010    Uiso  ? Al
   Al3        1.0     0.776678     0.105546     0.824497    Uiso  ? Al
   Al4        1.0     0.880930     0.216758     0.581485    Uiso  ? Al
   Al5        1.0     0.440430     0.092608     0.340949    Uiso  ? Al
   Al6        1.0     0.106898     0.104292     0.837872    Uiso  ? Al
   Al7        1.0     0.217003     0.216202     0.580697    Uiso  ? Al
   Al8        1.0     0.783193     0.093436     0.341159    Uiso  ? Al
   Al9        1.0     0.894921     0.206448     0.084471    Uiso  ? Al
   Al10       1.0     0.433381     0.103014     0.825248    Uiso  ? Al
   Al11       1.0     0.556882     0.203075     0.579206    Uiso  ? Al
   Al12       1.0     0.115927     0.422918     0.346317    Uiso  ? Al
   Al13       1.0     0.220166     0.543326     0.149043    Uiso  ? Al
   Al14       1.0     0.777395     0.420988     0.830914    Uiso  ? Al
   Al15       1.0     0.890990     0.538882     0.646753    Uiso  ? Al
   Al16       1.0     0.439921     0.435569     0.400122    Uiso  ? Al
   Al17       1.0     0.552399     0.544869     0.148691    Uiso  ? Al
   Al18       1.0     0.225188     0.535015     0.651100    Uiso  ? Al
   Al19       1.0     0.778879     0.421140     0.334605    Uiso  ? Al
   Al20       1.0     0.891825     0.536424     0.154250    Uiso  ? Al
   Al21       1.0     0.437557     0.442558     0.896382    Uiso  ? Al
   Al22       1.0     0.553760     0.534262     0.648797    Uiso  ? Al
   Al23       1.0     0.113430     0.754216     0.400851    Uiso  ? Al
   Al24       1.0     0.449628     0.755612     0.401224    Uiso  ? Al
   Al25       1.0     0.557526     0.858750     0.161266    Uiso  ? Al
   Al26       1.0     0.112763     0.763859     0.902597    Uiso  ? Al
   Al27       1.0     0.779856     0.754088     0.406645    Uiso  ? Al
   Al28       1.0     0.901035     0.859953     0.160068    Uiso  ? Al
   Al29       1.0     0.441508     0.762045     0.901262    Uiso  ? Al
   Al30       1.0     0.559825     0.865931     0.644047    Uiso  ? Al
   Hf1        1.0     0.559124     0.198066     0.093832    Uiso  ? Hf
   Hf2        1.0     0.774558     0.767692     0.900952    Uiso  ? Hf
   Hf3        1.0     0.221459     0.872163     0.630777    Uiso  ? Hf
   Mg1        1.0     0.118840     0.423113     0.861997    Uiso  ? Mg
   Mg2        1.0     0.225535     0.866502     0.147278    Uiso  ? Mg
   Mg3        1.0     0.887103     0.870588     0.638004    Uiso  ? Mg
   N1         1.0     0.223669     0.202050     0.395119    Uiso  ? N
   N2         1.0     0.101054     0.110825     0.151076    Uiso  ? N
   N3         1.0     0.887093     0.207227     0.896664    Uiso  ? N
   N4         1.0     0.765621     0.118644     0.640413    Uiso  ? N
   N5         1.0     0.558107     0.199650     0.383577    Uiso  ? N
   N6         1.0     0.433840     0.087512     0.151982    Uiso  ? N
   N7         1.0     0.232631     0.186030     0.902268    Uiso  ? N
   N8         1.0     0.095655     0.123003     0.646651    Uiso  ? N
   N9         1.0     0.888456     0.205631     0.396489    Uiso  ? N
   N10        1.0     0.795484     0.089804     0.151171    Uiso  ? N
   N11        1.0     0.555966     0.200569     0.888302    Uiso  ? N
   N12        1.0     0.439710     0.101157     0.635986    Uiso  ? N
   N13        1.0     0.227885     0.539082     0.336454    Uiso  ? N
   N14        1.0     0.117008     0.420897     0.135274    Uiso  ? N
   N15        1.0     0.881293     0.537592     0.841473    Uiso  ? N
   N16        1.0     0.776866     0.426711     0.638505    Uiso  ? N
   N17        1.0     0.549192     0.540404     0.338636    Uiso  ? N
   N18        1.0     0.435775     0.447324     0.087340    Uiso  ? N
   N19        1.0     0.230361     0.551592     0.836175    Uiso  ? N
   N20        1.0     0.111160     0.431186     0.618451    Uiso  ? N
   N21        1.0     0.888821     0.538561     0.345001    Uiso  ? N
   N22        1.0     0.778689     0.422604     0.141254    Uiso  ? N
   N23        1.0     0.549874     0.542199     0.838525    Uiso  ? N
   N24        1.0     0.441539     0.432276     0.586546    Uiso  ? N
   N25        1.0     0.222413     0.873920     0.372201    Uiso  ? N
   N26        1.0     0.104539     0.753227     0.087683    Uiso  ? N
   N27        1.0     0.896931     0.881438     0.845913    Uiso  ? N
   N28        1.0     0.770894     0.753518     0.589847    Uiso  ? N
   N29        1.0     0.560412     0.862084     0.347517    Uiso  ? N
   N30        1.0     0.461040     0.754026     0.084977    Uiso  ? N
   N31        1.0     0.222797     0.871948     0.842816    Uiso  ? N
   N32        1.0     0.117021     0.742608     0.582060    Uiso  ? N
   N33        1.0     0.893278     0.862564     0.348656    Uiso  ? N
   N34        1.0     0.777061     0.763177     0.106101    Uiso  ? N
   N35        1.0     0.541536     0.874681     0.832045    Uiso  ? N
   N36        1.0     0.463438     0.748207     0.586296    Uiso  ? N
