
#======================================================================
# CRYSTAL DATA
#----------------------------------------------------------------------
data_VESTA_phase_1

_chemical_name_common                  'Al   Hf   Mg   N                      '
_cell_length_a                         9.626459
_cell_length_b                         9.650796
_cell_length_c                         10.137987
_cell_angle_alpha                      90.046326
_cell_angle_beta                       89.926582
_cell_angle_gamma                      60.015842
_cell_volume                           815.793828
_space_group_name_H-M_alt              'P 1'
_space_group_IT_number                 1

loop_
_space_group_symop_operation_xyz
   'x, y, z'

loop_
   _atom_site_label
   _atom_site_occupancy
   _atom_site_fract_x
   _atom_site_fract_y
   _atom_site_fract_z
   _atom_site_adp_type
   _atom_site_U_iso_or_equiv
   _atom_site_type_symbol
   Al1        1.0     0.108407     0.098516     0.326267    Uiso  ? Al
   Al2        1.0     0.215198     0.205522     0.078546    Uiso  ? Al
   Al3        1.0     0.780521     0.100533     0.821250    Uiso  ? Al
   Al4        1.0     0.881600     0.215649     0.576181    Uiso  ? Al
   Al5        1.0     0.441045     0.089468     0.332491    Uiso  ? Al
   Al6        1.0     0.106767     0.102445     0.829950    Uiso  ? Al
   Al7        1.0     0.217845     0.214753     0.574647    Uiso  ? Al
   Al8        1.0     0.785372     0.091321     0.328679    Uiso  ? Al
   Al9        1.0     0.892612     0.209309     0.077489    Uiso  ? Al
   Al10       1.0     0.435809     0.095063     0.823532    Uiso  ? Al
   Al11       1.0     0.558197     0.200161     0.577445    Uiso  ? Al
   Al12       1.0     0.108986     0.423408     0.329429    Uiso  ? Al
   Al13       1.0     0.220459     0.543963     0.144968    Uiso  ? Al
   Al14       1.0     0.778986     0.424263     0.825281    Uiso  ? Al
   Al15       1.0     0.891733     0.535837     0.570701    Uiso  ? Al
   Al16       1.0     0.440121     0.430065     0.391183    Uiso  ? Al
   Al17       1.0     0.560285     0.543406     0.075729    Uiso  ? Al
   Al18       1.0     0.222627     0.536649     0.640815    Uiso  ? Al
   Al19       1.0     0.775913     0.427257     0.325349    Uiso  ? Al
   Al20       1.0     0.890569     0.532663     0.082699    Uiso  ? Al
   Al21       1.0     0.441846     0.433739     0.866131    Uiso  ? Al
   Al22       1.0     0.565691     0.535183     0.577224    Uiso  ? Al
   Al23       1.0     0.112755     0.754673     0.387525    Uiso  ? Al
   Al24       1.0     0.448755     0.757255     0.325693    Uiso  ? Al
   Al25       1.0     0.551141     0.868475     0.082069    Uiso  ? Al
   Al26       1.0     0.119753     0.756657     0.893854    Uiso  ? Al
   Al27       1.0     0.778647     0.760508     0.321020    Uiso  ? Al
   Al28       1.0     0.893381     0.871547     0.086513    Uiso  ? Al
   Al29       1.0     0.446244     0.757792     0.827982    Uiso  ? Al
   Al30       1.0     0.560289     0.868088     0.571928    Uiso  ? Al
   Hf1        1.0     0.554757     0.202641     0.086970    Uiso  ? Hf
   Hf2        1.0     0.778603     0.759645     0.834736    Uiso  ? Hf
   Hf3        1.0     0.221889     0.875085     0.601957    Uiso  ? Hf
   Mg1        1.0     0.112963     0.419472     0.832559    Uiso  ? Mg
   Mg2        1.0     0.225323     0.876588     0.093635    Uiso  ? Mg
   Mg3        1.0     0.876249     0.878462     0.572390    Uiso  ? Mg
   N1         1.0     0.222316     0.204311     0.386715    Uiso  ? N
   N2         1.0     0.100748     0.111035     0.140861    Uiso  ? N
   N3         1.0     0.886527     0.208400     0.887359    Uiso  ? N
   N4         1.0     0.770850     0.111120     0.635781    Uiso  ? N
   N5         1.0     0.558072     0.198956     0.376528    Uiso  ? N
   N6         1.0     0.433392     0.084544     0.143527    Uiso  ? N
   N7         1.0     0.229582     0.189776     0.892658    Uiso  ? N
   N8         1.0     0.095820     0.121861     0.638993    Uiso  ? N
   N9         1.0     0.887465     0.207765     0.387296    Uiso  ? N
   N10        1.0     0.794465     0.090766     0.138795    Uiso  ? N
   N11        1.0     0.554620     0.202582     0.876312    Uiso  ? N
   N12        1.0     0.443918     0.090708     0.632402    Uiso  ? N
   N13        1.0     0.225619     0.538117     0.334901    Uiso  ? N
   N14        1.0     0.110300     0.423683     0.136119    Uiso  ? N
   N15        1.0     0.882164     0.528222     0.896836    Uiso  ? N
   N16        1.0     0.779567     0.429694     0.635622    Uiso  ? N
   N17        1.0     0.558750     0.540073     0.386877    Uiso  ? N
   N18        1.0     0.436599     0.443238     0.094720    Uiso  ? N
   N19        1.0     0.228410     0.549578     0.827547    Uiso  ? N
   N20        1.0     0.108214     0.428514     0.620936    Uiso  ? N
   N21        1.0     0.886107     0.539597     0.379334    Uiso  ? N
   N22        1.0     0.775732     0.426308     0.137287    Uiso  ? N
   N23        1.0     0.560287     0.540214     0.882596    Uiso  ? N
   N24        1.0     0.444739     0.425803     0.592259    Uiso  ? N
   N25        1.0     0.225869     0.876306     0.380872    Uiso  ? N
   N26        1.0     0.112856     0.748908     0.082488    Uiso  ? N
   N27        1.0     0.889368     0.888691     0.887506    Uiso  ? N
   N28        1.0     0.772127     0.751578     0.631810    Uiso  ? N
   N29        1.0     0.558082     0.869525     0.384115    Uiso  ? N
   N30        1.0     0.460853     0.750704     0.140120    Uiso  ? N
   N31        1.0     0.220270     0.874479     0.844863    Uiso  ? N
   N32        1.0     0.115972     0.742346     0.577102    Uiso  ? N
   N33        1.0     0.887953     0.871254     0.363367    Uiso  ? N
   N34        1.0     0.776285     0.762308     0.126791    Uiso  ? N
   N35        1.0     0.538611     0.880325     0.891662    Uiso  ? N
   N36        1.0     0.467175     0.748732     0.638498    Uiso  ? N
