
#======================================================================
# CRYSTAL DATA
#----------------------------------------------------------------------
data_VESTA_phase_1

_chemical_name_common                  'Al   Hf   Mg   N                      '
_cell_length_a                         9.610162
_cell_length_b                         9.603140
_cell_length_c                         10.337676
_cell_angle_alpha                      90.185959
_cell_angle_beta                       90.040573
_cell_angle_gamma                      59.933254
_cell_volume                           825.662354
_space_group_name_H-M_alt              'P 1'
_space_group_IT_number                 1

loop_
_space_group_symop_operation_xyz
   'x, y, z'

loop_
   _atom_site_label
   _atom_site_occupancy
   _atom_site_fract_x
   _atom_site_fract_y
   _atom_site_fract_z
   _atom_site_adp_type
   _atom_site_U_iso_or_equiv
   _atom_site_type_symbol
   Al1        1.0     0.107647     0.100471     0.329522    Uiso  ? Al
   Al2        1.0     0.216737     0.201595     0.079072    Uiso  ? Al
   Al3        1.0     0.777415     0.106706     0.818469    Uiso  ? Al
   Al4        1.0     0.881986     0.217508     0.577065    Uiso  ? Al
   Al5        1.0     0.438332     0.095125     0.334125    Uiso  ? Al
   Al6        1.0     0.107607     0.102853     0.832871    Uiso  ? Al
   Al7        1.0     0.217510     0.216431     0.574632    Uiso  ? Al
   Al8        1.0     0.782930     0.095426     0.334931    Uiso  ? Al
   Al9        1.0     0.895429     0.204768     0.079502    Uiso  ? Al
   Al10       1.0     0.431732     0.104296     0.819158    Uiso  ? Al
   Al11       1.0     0.557283     0.203461     0.573000    Uiso  ? Al
   Al12       1.0     0.109202     0.423939     0.327227    Uiso  ? Al
   Al13       1.0     0.218812     0.543308     0.142918    Uiso  ? Al
   Al14       1.0     0.782313     0.423279     0.827442    Uiso  ? Al
   Al15       1.0     0.894320     0.531395     0.575120    Uiso  ? Al
   Al16       1.0     0.439680     0.435649     0.394021    Uiso  ? Al
   Al17       1.0     0.552575     0.544247     0.144447    Uiso  ? Al
   Al18       1.0     0.226088     0.535381     0.645443    Uiso  ? Al
   Al19       1.0     0.782854     0.424119     0.326725    Uiso  ? Al
   Al20       1.0     0.892348     0.526603     0.082834    Uiso  ? Al
   Al21       1.0     0.437710     0.441831     0.890283    Uiso  ? Al
   Al22       1.0     0.557092     0.533572     0.644656    Uiso  ? Al
   Al23       1.0     0.113798     0.753342     0.393918    Uiso  ? Al
   Al24       1.0     0.449771     0.755307     0.394874    Uiso  ? Al
   Al25       1.0     0.557519     0.859331     0.154069    Uiso  ? Al
   Al26       1.0     0.113990     0.762402     0.896956    Uiso  ? Al
   Al27       1.0     0.775405     0.762993     0.400122    Uiso  ? Al
   Al28       1.0     0.900106     0.859745     0.153381    Uiso  ? Al
   Al29       1.0     0.442377     0.760216     0.896055    Uiso  ? Al
   Al30       1.0     0.558627     0.867273     0.638472    Uiso  ? Al
   Hf1        1.0     0.559550     0.196737     0.086284    Uiso  ? Hf
   Hf2        1.0     0.772788     0.772139     0.890532    Uiso  ? Hf
   Hf3        1.0     0.222986     0.870107     0.625872    Uiso  ? Hf
   Mg1        1.0     0.111862     0.422169     0.832491    Uiso  ? Mg
   Mg2        1.0     0.225904     0.865706     0.142115    Uiso  ? Mg
   Mg3        1.0     0.888630     0.871871     0.633041    Uiso  ? Mg
   N1         1.0     0.221597     0.205648     0.389725    Uiso  ? N
   N2         1.0     0.101792     0.110167     0.145714    Uiso  ? N
   N3         1.0     0.887542     0.207029     0.891841    Uiso  ? N
   N4         1.0     0.765755     0.120847     0.635321    Uiso  ? N
   N5         1.0     0.558323     0.199342     0.378775    Uiso  ? N
   N6         1.0     0.431567     0.089593     0.146231    Uiso  ? N
   N7         1.0     0.230678     0.189355     0.896274    Uiso  ? N
   N8         1.0     0.097646     0.120904     0.641045    Uiso  ? N
   N9         1.0     0.887873     0.207803     0.391983    Uiso  ? N
   N10        1.0     0.795318     0.090577     0.146152    Uiso  ? N
   N11        1.0     0.556931     0.199102     0.881990    Uiso  ? N
   N12        1.0     0.439369     0.102307     0.630592    Uiso  ? N
   N13        1.0     0.226949     0.538028     0.329640    Uiso  ? N
   N14        1.0     0.109812     0.422585     0.137191    Uiso  ? N
   N15        1.0     0.882661     0.527361     0.898039    Uiso  ? N
   N16        1.0     0.783778     0.429202     0.639446    Uiso  ? N
   N17        1.0     0.550226     0.539904     0.332534    Uiso  ? N
   N18        1.0     0.435523     0.446259     0.081051    Uiso  ? N
   N19        1.0     0.230246     0.550580     0.830015    Uiso  ? N
   N20        1.0     0.109439     0.429141     0.626807    Uiso  ? N
   N21        1.0     0.891492     0.531834     0.384781    Uiso  ? N
   N22        1.0     0.781247     0.422580     0.139915    Uiso  ? N
   N23        1.0     0.552022     0.540432     0.832539    Uiso  ? N
   N24        1.0     0.442686     0.432999     0.580263    Uiso  ? N
   N25        1.0     0.222412     0.873790     0.365675    Uiso  ? N
   N26        1.0     0.104237     0.752631     0.081185    Uiso  ? N
   N27        1.0     0.899520     0.882151     0.838450    Uiso  ? N
   N28        1.0     0.769372     0.758690     0.586212    Uiso  ? N
   N29        1.0     0.559028     0.863547     0.339947    Uiso  ? N
   N30        1.0     0.461540     0.752611     0.078992    Uiso  ? N
   N31        1.0     0.223956     0.870592     0.836925    Uiso  ? N
   N32        1.0     0.117406     0.741274     0.574373    Uiso  ? N
   N33        1.0     0.893094     0.863485     0.341233    Uiso  ? N
   N34        1.0     0.773668     0.769196     0.096091    Uiso  ? N
   N35        1.0     0.538923     0.875141     0.825162    Uiso  ? N
   N36        1.0     0.465227     0.746880     0.579378    Uiso  ? N
