
#======================================================================
# CRYSTAL DATA
#----------------------------------------------------------------------
data_VESTA_phase_1

_chemical_name_common                  'Al   Hf   Mg   N                      '
_cell_length_a                         9.620219
_cell_length_b                         9.658675
_cell_length_c                         10.228155
_cell_angle_alpha                      90.441826
_cell_angle_beta                       90.231003
_cell_angle_gamma                      60.003944
_cell_volume                           823.066276
_space_group_name_H-M_alt              'P 1'
_space_group_IT_number                 1

loop_
_space_group_symop_operation_xyz
   'x, y, z'

loop_
   _atom_site_label
   _atom_site_occupancy
   _atom_site_fract_x
   _atom_site_fract_y
   _atom_site_fract_z
   _atom_site_adp_type
   _atom_site_U_iso_or_equiv
   _atom_site_type_symbol
   Al1        1.0     0.107979     0.100535     0.329157    Uiso  ? Al
   Al2        1.0     0.215587     0.201905     0.078933    Uiso  ? Al
   Al3        1.0     0.776800     0.105758     0.818564    Uiso  ? Al
   Al4        1.0     0.882879     0.217694     0.577757    Uiso  ? Al
   Al5        1.0     0.439314     0.094699     0.335330    Uiso  ? Al
   Al6        1.0     0.107272     0.103595     0.834608    Uiso  ? Al
   Al7        1.0     0.217024     0.216111     0.575969    Uiso  ? Al
   Al8        1.0     0.781960     0.097212     0.335100    Uiso  ? Al
   Al9        1.0     0.894350     0.205616     0.078880    Uiso  ? Al
   Al10       1.0     0.435373     0.097704     0.820784    Uiso  ? Al
   Al11       1.0     0.555785     0.206480     0.574735    Uiso  ? Al
   Al12       1.0     0.111200     0.422672     0.328677    Uiso  ? Al
   Al13       1.0     0.218396     0.542202     0.142286    Uiso  ? Al
   Al14       1.0     0.782500     0.422875     0.829640    Uiso  ? Al
   Al15       1.0     0.893194     0.534000     0.574191    Uiso  ? Al
   Al16       1.0     0.439510     0.435661     0.394580    Uiso  ? Al
   Al17       1.0     0.553377     0.540691     0.145742    Uiso  ? Al
   Al18       1.0     0.224761     0.536617     0.645799    Uiso  ? Al
   Al19       1.0     0.783259     0.422402     0.327675    Uiso  ? Al
   Al20       1.0     0.890015     0.529896     0.083281    Uiso  ? Al
   Al21       1.0     0.436761     0.443187     0.888869    Uiso  ? Al
   Al22       1.0     0.557916     0.534819     0.645159    Uiso  ? Al
   Al23       1.0     0.116081     0.753509     0.392862    Uiso  ? Al
   Al24       1.0     0.447017     0.753573     0.391973    Uiso  ? Al
   Al25       1.0     0.554964     0.864396     0.115710    Uiso  ? Al
   Al26       1.0     0.110699     0.764490     0.897668    Uiso  ? Al
   Al27       1.0     0.781364     0.752936     0.333301    Uiso  ? Al
   Al28       1.0     0.900495     0.862607     0.147760    Uiso  ? Al
   Al29       1.0     0.441784     0.760418     0.900590    Uiso  ? Al
   Al30       1.0     0.561814     0.872981     0.576845    Uiso  ? Al
   Hf1        1.0     0.557749     0.197053     0.083909    Uiso  ? Hf
   Hf2        1.0     0.776998     0.760087     0.834272    Uiso  ? Hf
   Hf3        1.0     0.225264     0.869664     0.629112    Uiso  ? Hf
   Mg1        1.0     0.112706     0.421879     0.835618    Uiso  ? Mg
   Mg2        1.0     0.223127     0.866502     0.142899    Uiso  ? Mg
   Mg3        1.0     0.886584     0.877814     0.611591    Uiso  ? Mg
   N1         1.0     0.221402     0.205926     0.389321    Uiso  ? N
   N2         1.0     0.101450     0.109530     0.143836    Uiso  ? N
   N3         1.0     0.886676     0.207851     0.890436    Uiso  ? N
   N4         1.0     0.765990     0.120781     0.632842    Uiso  ? N
   N5         1.0     0.557001     0.202161     0.377628    Uiso  ? N
   N6         1.0     0.433294     0.085384     0.147850    Uiso  ? N
   N7         1.0     0.230016     0.191387     0.894680    Uiso  ? N
   N8         1.0     0.098761     0.119470     0.640804    Uiso  ? N
   N9         1.0     0.888791     0.208045     0.391096    Uiso  ? N
   N10        1.0     0.793628     0.090639     0.143759    Uiso  ? N
   N11        1.0     0.553560     0.205169     0.878004    Uiso  ? N
   N12        1.0     0.442870     0.096672     0.629277    Uiso  ? N
   N13        1.0     0.226539     0.538444     0.330887    Uiso  ? N
   N14        1.0     0.110687     0.420808     0.137277    Uiso  ? N
   N15        1.0     0.881605     0.528548     0.900791    Uiso  ? N
   N16        1.0     0.784362     0.428636     0.638293    Uiso  ? N
   N17        1.0     0.551604     0.538393     0.334855    Uiso  ? N
   N18        1.0     0.435453     0.444209     0.082227    Uiso  ? N
   N19        1.0     0.227591     0.553274     0.831504    Uiso  ? N
   N20        1.0     0.109815     0.428959     0.625386    Uiso  ? N
   N21        1.0     0.889777     0.534986     0.384939    Uiso  ? N
   N22        1.0     0.781360     0.421091     0.139833    Uiso  ? N
   N23        1.0     0.551984     0.542642     0.834543    Uiso  ? N
   N24        1.0     0.442325     0.433411     0.582680    Uiso  ? N
   N25        1.0     0.222191     0.874742     0.363709    Uiso  ? N
   N26        1.0     0.105191     0.750951     0.082917    Uiso  ? N
   N27        1.0     0.895778     0.886557     0.845658    Uiso  ? N
   N28        1.0     0.773102     0.750425     0.628464    Uiso  ? N
   N29        1.0     0.558587     0.871763     0.375963    Uiso  ? N
   N30        1.0     0.456582     0.747973     0.086684    Uiso  ? N
   N31        1.0     0.223358     0.871876     0.840398    Uiso  ? N
   N32        1.0     0.119977     0.741292     0.575176    Uiso  ? N
   N33        1.0     0.894669     0.868026     0.345752    Uiso  ? N
   N34        1.0     0.778658     0.754747     0.138729    Uiso  ? N
   N35        1.0     0.538110     0.884671     0.872108    Uiso  ? N
   N36        1.0     0.465175     0.745273     0.580116    Uiso  ? N
