
#======================================================================
# CRYSTAL DATA
#----------------------------------------------------------------------
data_VESTA_phase_1

_chemical_name_common                  'Al   Hf   Mg   N                      '
_cell_length_a                         9.621812
_cell_length_b                         9.626006
_cell_length_c                         10.275975
_cell_angle_alpha                      90.222672
_cell_angle_beta                       90.064819
_cell_angle_gamma                      59.960800
_cell_volume                           823.913312
_space_group_name_H-M_alt              'P 1'
_space_group_IT_number                 1

loop_
_space_group_symop_operation_xyz
   'x, y, z'

loop_
   _atom_site_label
   _atom_site_occupancy
   _atom_site_fract_x
   _atom_site_fract_y
   _atom_site_fract_z
   _atom_site_adp_type
   _atom_site_U_iso_or_equiv
   _atom_site_type_symbol
   Al1        1.0     0.107611     0.100714     0.329310    Uiso  ? Al
   Al2        1.0     0.216294     0.202064     0.079031    Uiso  ? Al
   Al3        1.0     0.776865     0.106923     0.818723    Uiso  ? Al
   Al4        1.0     0.881983     0.216994     0.576653    Uiso  ? Al
   Al5        1.0     0.438639     0.094534     0.333679    Uiso  ? Al
   Al6        1.0     0.107427     0.102724     0.832730    Uiso  ? Al
   Al7        1.0     0.217841     0.215875     0.574579    Uiso  ? Al
   Al8        1.0     0.783206     0.094996     0.334369    Uiso  ? Al
   Al9        1.0     0.895049     0.205285     0.079295    Uiso  ? Al
   Al10       1.0     0.431654     0.104612     0.819908    Uiso  ? Al
   Al11       1.0     0.556947     0.203649     0.572743    Uiso  ? Al
   Al12       1.0     0.109150     0.424252     0.327852    Uiso  ? Al
   Al13       1.0     0.218393     0.543542     0.142386    Uiso  ? Al
   Al14       1.0     0.782031     0.422359     0.827276    Uiso  ? Al
   Al15       1.0     0.894891     0.530157     0.576887    Uiso  ? Al
   Al16       1.0     0.439708     0.435686     0.393427    Uiso  ? Al
   Al17       1.0     0.552640     0.544379     0.144183    Uiso  ? Al
   Al18       1.0     0.225959     0.535452     0.644982    Uiso  ? Al
   Al19       1.0     0.782862     0.424378     0.327113    Uiso  ? Al
   Al20       1.0     0.891834     0.527478     0.081300    Uiso  ? Al
   Al21       1.0     0.437373     0.442454     0.889969    Uiso  ? Al
   Al22       1.0     0.557006     0.533596     0.643969    Uiso  ? Al
   Al23       1.0     0.113777     0.753346     0.392721    Uiso  ? Al
   Al24       1.0     0.450393     0.755344     0.393885    Uiso  ? Al
   Al25       1.0     0.558695     0.859182     0.151790    Uiso  ? Al
   Al26       1.0     0.113932     0.763148     0.896811    Uiso  ? Al
   Al27       1.0     0.776064     0.762267     0.401243    Uiso  ? Al
   Al28       1.0     0.898999     0.859862     0.150764    Uiso  ? Al
   Al29       1.0     0.441829     0.760591     0.896286    Uiso  ? Al
   Al30       1.0     0.557429     0.867745     0.638953    Uiso  ? Al
   Hf1        1.0     0.558877     0.197702     0.087177    Uiso  ? Hf
   Hf2        1.0     0.774588     0.769465     0.883765    Uiso  ? Hf
   Hf3        1.0     0.223042     0.870360     0.624212    Uiso  ? Hf
   Mg1        1.0     0.113152     0.421351     0.832887    Uiso  ? Mg
   Mg2        1.0     0.225533     0.866424     0.141670    Uiso  ? Mg
   Mg3        1.0     0.889341     0.872996     0.631933    Uiso  ? Mg
   N1         1.0     0.221803     0.205553     0.388848    Uiso  ? N
   N2         1.0     0.101581     0.110271     0.144825    Uiso  ? N
   N3         1.0     0.887285     0.206984     0.891084    Uiso  ? N
   N4         1.0     0.765597     0.120499     0.634195    Uiso  ? N
   N5         1.0     0.558054     0.199854     0.376892    Uiso  ? N
   N6         1.0     0.431743     0.088930     0.144932    Uiso  ? N
   N7         1.0     0.230228     0.189569     0.895541    Uiso  ? N
   N8         1.0     0.097609     0.120638     0.640127    Uiso  ? N
   N9         1.0     0.887929     0.207714     0.390882    Uiso  ? N
   N10        1.0     0.795440     0.090178     0.144775    Uiso  ? N
   N11        1.0     0.555963     0.200730     0.881465    Uiso  ? N
   N12        1.0     0.439822     0.101657     0.629849    Uiso  ? N
   N13        1.0     0.226833     0.538019     0.329985    Uiso  ? N
   N14        1.0     0.109288     0.423078     0.136620    Uiso  ? N
   N15        1.0     0.883763     0.525412     0.895865    Uiso  ? N
   N16        1.0     0.783341     0.428228     0.638440    Uiso  ? N
   N17        1.0     0.550595     0.539824     0.333192    Uiso  ? N
   N18        1.0     0.435292     0.446622     0.081598    Uiso  ? N
   N19        1.0     0.229581     0.551323     0.830468    Uiso  ? N
   N20        1.0     0.110520     0.428264     0.626175    Uiso  ? N
   N21        1.0     0.891265     0.532324     0.385722    Uiso  ? N
   N22        1.0     0.781146     0.423136     0.139248    Uiso  ? N
   N23        1.0     0.551895     0.540977     0.832819    Uiso  ? N
   N24        1.0     0.442755     0.432487     0.580581    Uiso  ? N
   N25        1.0     0.222503     0.874247     0.366184    Uiso  ? N
   N26        1.0     0.104572     0.752824     0.081875    Uiso  ? N
   N27        1.0     0.899559     0.883453     0.839106    Uiso  ? N
   N28        1.0     0.770606     0.756925     0.592112    Uiso  ? N
   N29        1.0     0.560354     0.863304     0.339936    Uiso  ? N
   N30        1.0     0.460942     0.752622     0.079990    Uiso  ? N
   N31        1.0     0.223812     0.870980     0.836838    Uiso  ? N
   N32        1.0     0.117744     0.741035     0.574233    Uiso  ? N
   N33        1.0     0.892461     0.863408     0.341150    Uiso  ? N
   N34        1.0     0.773910     0.768687     0.092006    Uiso  ? N
   N35        1.0     0.537419     0.876540     0.826666    Uiso  ? N
   N36        1.0     0.465549     0.746723     0.579385    Uiso  ? N
