
#======================================================================
# CRYSTAL DATA
#----------------------------------------------------------------------
data_VESTA_phase_1

_chemical_name_common                  'Al   Hf   Mg   N                      '
_cell_length_a                         9.602880
_cell_length_b                         9.620031
_cell_length_c                         10.197279
_cell_angle_alpha                      89.997200
_cell_angle_beta                       89.651123
_cell_angle_gamma                      60.077118
_cell_volume                           816.430598
_space_group_name_H-M_alt              'P 1'
_space_group_IT_number                 1

loop_
_space_group_symop_operation_xyz
   'x, y, z'

loop_
   _atom_site_label
   _atom_site_occupancy
   _atom_site_fract_x
   _atom_site_fract_y
   _atom_site_fract_z
   _atom_site_adp_type
   _atom_site_U_iso_or_equiv
   _atom_site_type_symbol
   Al1        1.0     0.114879     0.095535     0.396700    Uiso  ? Al
   Al2        1.0     0.216126     0.207477     0.155259    Uiso  ? Al
   Al3        1.0     0.783943     0.102220     0.828952    Uiso  ? Al
   Al4        1.0     0.877794     0.212868     0.579471    Uiso  ? Al
   Al5        1.0     0.443952     0.094305     0.403486    Uiso  ? Al
   Al6        1.0     0.118139     0.093995     0.907508    Uiso  ? Al
   Al7        1.0     0.218840     0.211289     0.651504    Uiso  ? Al
   Al8        1.0     0.784674     0.093456     0.338605    Uiso  ? Al
   Al9        1.0     0.892316     0.204626     0.086562    Uiso  ? Al
   Al10       1.0     0.433840     0.093333     0.895925    Uiso  ? Al
   Al11       1.0     0.546015     0.212404     0.652721    Uiso  ? Al
   Al12       1.0     0.112909     0.427027     0.400443    Uiso  ? Al
   Al13       1.0     0.217197     0.541102     0.153480    Uiso  ? Al
   Al14       1.0     0.773467     0.430628     0.900820    Uiso  ? Al
   Al15       1.0     0.887241     0.535096     0.645925    Uiso  ? Al
   Al16       1.0     0.443420     0.429156     0.403072    Uiso  ? Al
   Al17       1.0     0.557022     0.544496     0.151224    Uiso  ? Al
   Al18       1.0     0.221475     0.535681     0.651848    Uiso  ? Al
   Al19       1.0     0.772032     0.436208     0.397906    Uiso  ? Al
   Al20       1.0     0.894251     0.532051     0.157676    Uiso  ? Al
   Al21       1.0     0.437292     0.439577     0.896080    Uiso  ? Al
   Al22       1.0     0.560367     0.533680     0.650953    Uiso  ? Al
   Al23       1.0     0.115494     0.754628     0.399982    Uiso  ? Al
   Al24       1.0     0.446667     0.758980     0.399815    Uiso  ? Al
   Al25       1.0     0.554167     0.866462     0.156697    Uiso  ? Al
   Al26       1.0     0.113926     0.759212     0.908214    Uiso  ? Al
   Al27       1.0     0.776891     0.758210     0.404786    Uiso  ? Al
   Al28       1.0     0.901010     0.857273     0.158527    Uiso  ? Al
   Al29       1.0     0.444926     0.758085     0.905757    Uiso  ? Al
   Al30       1.0     0.556437     0.871590     0.645383    Uiso  ? Al
   Hf1        1.0     0.552723     0.207031     0.130134    Uiso  ? Hf
   Hf2        1.0     0.778420     0.762429     0.898039    Uiso  ? Hf
   Hf3        1.0     0.219992     0.873392     0.645771    Uiso  ? Hf
   Mg1        1.0     0.115975     0.422875     0.901373    Uiso  ? Mg
   Mg2        1.0     0.223465     0.871100     0.152988    Uiso  ? Mg
   Mg3        1.0     0.886650     0.870528     0.635491    Uiso  ? Mg
   N1         1.0     0.225619     0.204620     0.344190    Uiso  ? N
   N2         1.0     0.112257     0.104215     0.094731    Uiso  ? N
   N3         1.0     0.887982     0.204933     0.893430    Uiso  ? N
   N4         1.0     0.768277     0.115541     0.641854    Uiso  ? N
   N5         1.0     0.550853     0.207662     0.341749    Uiso  ? N
   N6         1.0     0.436194     0.080843     0.087051    Uiso  ? N
   N7         1.0     0.226401     0.191944     0.834466    Uiso  ? N
   N8         1.0     0.104502     0.111970     0.588376    Uiso  ? N
   N9         1.0     0.885589     0.206917     0.386100    Uiso  ? N
   N10        1.0     0.798861     0.084517     0.144477    Uiso  ? N
   N11        1.0     0.548545     0.208506     0.858026    Uiso  ? N
   N12        1.0     0.444141     0.095459     0.592269    Uiso  ? N
   N13        1.0     0.226187     0.535459     0.342344    Uiso  ? N
   N14        1.0     0.113953     0.425428     0.106594    Uiso  ? N
   N15        1.0     0.882269     0.530659     0.832898    Uiso  ? N
   N16        1.0     0.771756     0.435663     0.587322    Uiso  ? N
   N17        1.0     0.553521     0.539305     0.340432    Uiso  ? N
   N18        1.0     0.435677     0.449160     0.086402    Uiso  ? N
   N19        1.0     0.226456     0.549032     0.836431    Uiso  ? N
   N20        1.0     0.110986     0.427689     0.590960    Uiso  ? N
   N21        1.0     0.889556     0.537989     0.345164    Uiso  ? N
   N22        1.0     0.775362     0.433501     0.094910    Uiso  ? N
   N23        1.0     0.556114     0.539109     0.839435    Uiso  ? N
   N24        1.0     0.443970     0.427568     0.592376    Uiso  ? N
   N25        1.0     0.223406     0.872190     0.362862    Uiso  ? N
   N26        1.0     0.107127     0.750696     0.093236    Uiso  ? N
   N27        1.0     0.899708     0.878442     0.847591    Uiso  ? N
   N28        1.0     0.769880     0.752391     0.591186    Uiso  ? N
   N29        1.0     0.554906     0.873226     0.344702    Uiso  ? N
   N30        1.0     0.461448     0.753181     0.089503    Uiso  ? N
   N31        1.0     0.223649     0.871429     0.854065    Uiso  ? N
   N32        1.0     0.119653     0.743023     0.583490    Uiso  ? N
   N33        1.0     0.892369     0.864579     0.350226    Uiso  ? N
   N34        1.0     0.778577     0.759658     0.105398    Uiso  ? N
   N35        1.0     0.540808     0.877957     0.834245    Uiso  ? N
   N36        1.0     0.459237     0.751155     0.588645    Uiso  ? N
