
#======================================================================
# CRYSTAL DATA
#----------------------------------------------------------------------
data_VESTA_phase_1

_chemical_name_common                  'Al   Hf   Mg   N                      '
_cell_length_a                         9.622998
_cell_length_b                         9.646809
_cell_length_c                         10.096216
_cell_angle_alpha                      89.990135
_cell_angle_beta                       89.636337
_cell_angle_gamma                      60.010185
_cell_volume                           811.739263
_space_group_name_H-M_alt              'P 1'
_space_group_IT_number                 1

loop_
_space_group_symop_operation_xyz
   'x, y, z'

loop_
   _atom_site_label
   _atom_site_occupancy
   _atom_site_fract_x
   _atom_site_fract_y
   _atom_site_fract_z
   _atom_site_adp_type
   _atom_site_U_iso_or_equiv
   _atom_site_type_symbol
   Al1        1.0     0.112247     0.098058     0.397727    Uiso  ? Al
   Al2        1.0     0.217372     0.207620     0.156190    Uiso  ? Al
   Al3        1.0     0.782549     0.099775     0.831404    Uiso  ? Al
   Al4        1.0     0.881458     0.217440     0.625891    Uiso  ? Al
   Al5        1.0     0.443375     0.094487     0.404939    Uiso  ? Al
   Al6        1.0     0.109519     0.098500     0.909844    Uiso  ? Al
   Al7        1.0     0.218284     0.211597     0.653445    Uiso  ? Al
   Al8        1.0     0.781942     0.092988     0.349117    Uiso  ? Al
   Al9        1.0     0.896410     0.209224     0.145297    Uiso  ? Al
   Al10       1.0     0.432512     0.092647     0.897509    Uiso  ? Al
   Al11       1.0     0.545019     0.211936     0.652940    Uiso  ? Al
   Al12       1.0     0.113107     0.427166     0.401905    Uiso  ? Al
   Al13       1.0     0.217923     0.540672     0.155041    Uiso  ? Al
   Al14       1.0     0.777111     0.424590     0.904460    Uiso  ? Al
   Al15       1.0     0.887416     0.535032     0.648545    Uiso  ? Al
   Al16       1.0     0.443519     0.429187     0.404932    Uiso  ? Al
   Al17       1.0     0.557178     0.544013     0.153275    Uiso  ? Al
   Al18       1.0     0.221730     0.535516     0.654299    Uiso  ? Al
   Al19       1.0     0.774624     0.432523     0.400025    Uiso  ? Al
   Al20       1.0     0.894540     0.533353     0.159021    Uiso  ? Al
   Al21       1.0     0.437776     0.439853     0.897799    Uiso  ? Al
   Al22       1.0     0.559781     0.533847     0.653158    Uiso  ? Al
   Al23       1.0     0.116353     0.754316     0.401538    Uiso  ? Al
   Al24       1.0     0.446879     0.758633     0.401329    Uiso  ? Al
   Al25       1.0     0.554509     0.866345     0.158652    Uiso  ? Al
   Al26       1.0     0.113733     0.759591     0.910014    Uiso  ? Al
   Al27       1.0     0.776658     0.757511     0.407283    Uiso  ? Al
   Al28       1.0     0.900528     0.858002     0.160730    Uiso  ? Al
   Al29       1.0     0.444460     0.757984     0.907548    Uiso  ? Al
   Al30       1.0     0.555440     0.871607     0.647436    Uiso  ? Al
   Hf1        1.0     0.554814     0.205655     0.129662    Uiso  ? Hf
   Hf2        1.0     0.778076     0.762313     0.898187    Uiso  ? Hf
   Hf3        1.0     0.219435     0.874414     0.646571    Uiso  ? Hf
   Mg1        1.0     0.115849     0.422719     0.902729    Uiso  ? Mg
   Mg2        1.0     0.223613     0.871220     0.153733    Uiso  ? Mg
   Mg3        1.0     0.887319     0.869366     0.634736    Uiso  ? Mg
   N1         1.0     0.225924     0.204836     0.346442    Uiso  ? N
   N2         1.0     0.108914     0.106761     0.096964    Uiso  ? N
   N3         1.0     0.891376     0.208432     0.857688    Uiso  ? N
   N4         1.0     0.765980     0.112883     0.634235    Uiso  ? N
   N5         1.0     0.550472     0.207895     0.344659    Uiso  ? N
   N6         1.0     0.436415     0.080430     0.089780    Uiso  ? N
   N7         1.0     0.225086     0.191365     0.837653    Uiso  ? N
   N8         1.0     0.101282     0.114534     0.587643    Uiso  ? N
   N9         1.0     0.889811     0.210821     0.353218    Uiso  ? N
   N10        1.0     0.798528     0.082333     0.142935    Uiso  ? N
   N11        1.0     0.548790     0.207652     0.860130    Uiso  ? N
   N12        1.0     0.442793     0.095202     0.594981    Uiso  ? N
   N13        1.0     0.226433     0.535452     0.345114    Uiso  ? N
   N14        1.0     0.114250     0.425594     0.109101    Uiso  ? N
   N15        1.0     0.881870     0.530274     0.836825    Uiso  ? N
   N16        1.0     0.772747     0.433530     0.588574    Uiso  ? N
   N17        1.0     0.554265     0.538731     0.343783    Uiso  ? N
   N18        1.0     0.436460     0.448674     0.089388    Uiso  ? N
   N19        1.0     0.226568     0.548753     0.839977    Uiso  ? N
   N20        1.0     0.110827     0.427958     0.593973    Uiso  ? N
   N21        1.0     0.889394     0.538404     0.348142    Uiso  ? N
   N22        1.0     0.777478     0.429961     0.097801    Uiso  ? N
   N23        1.0     0.557238     0.538511     0.842897    Uiso  ? N
   N24        1.0     0.443776     0.427531     0.595546    Uiso  ? N
   N25        1.0     0.223069     0.873187     0.366197    Uiso  ? N
   N26        1.0     0.107198     0.750632     0.096733    Uiso  ? N
   N27        1.0     0.899924     0.877961     0.848559    Uiso  ? N
   N28        1.0     0.769374     0.751702     0.595392    Uiso  ? N
   N29        1.0     0.555044     0.873151     0.347878    Uiso  ? N
   N30        1.0     0.461935     0.752795     0.092869    Uiso  ? N
   N31        1.0     0.222649     0.872364     0.856884    Uiso  ? N
   N32        1.0     0.120930     0.742441     0.586671    Uiso  ? N
   N33        1.0     0.892139     0.864649     0.354797    Uiso  ? N
   N34        1.0     0.778721     0.759609     0.107484    Uiso  ? N
   N35        1.0     0.539834     0.877889     0.837039    Uiso  ? N
   N36        1.0     0.459189     0.750661     0.591653    Uiso  ? N
