
#======================================================================
# CRYSTAL DATA
#----------------------------------------------------------------------
data_VESTA_phase_1

_chemical_name_common                  'Al   Hf   Mg   N                      '
_cell_length_a                         9.623899
_cell_length_b                         9.647292
_cell_length_c                         10.097856
_cell_angle_alpha                      89.988045
_cell_angle_beta                       89.631561
_cell_angle_gamma                      60.016140
_cell_volume                           812.035970
_space_group_name_H-M_alt              'P 1'
_space_group_IT_number                 1

loop_
_space_group_symop_operation_xyz
   'x, y, z'

loop_
   _atom_site_label
   _atom_site_occupancy
   _atom_site_fract_x
   _atom_site_fract_y
   _atom_site_fract_z
   _atom_site_adp_type
   _atom_site_U_iso_or_equiv
   _atom_site_type_symbol
   Al1        1.0     0.112859     0.097658     0.397345    Uiso  ? Al
   Al2        1.0     0.217507     0.207701     0.156413    Uiso  ? Al
   Al3        1.0     0.783202     0.100268     0.831206    Uiso  ? Al
   Al4        1.0     0.880716     0.216662     0.616380    Uiso  ? Al
   Al5        1.0     0.443452     0.094506     0.405020    Uiso  ? Al
   Al6        1.0     0.109979     0.098189     0.910115    Uiso  ? Al
   Al7        1.0     0.218246     0.211621     0.653595    Uiso  ? Al
   Al8        1.0     0.782049     0.092916     0.348178    Uiso  ? Al
   Al9        1.0     0.896001     0.208887     0.139520    Uiso  ? Al
   Al10       1.0     0.432591     0.092682     0.897503    Uiso  ? Al
   Al11       1.0     0.544951     0.211984     0.653273    Uiso  ? Al
   Al12       1.0     0.113120     0.427193     0.401998    Uiso  ? Al
   Al13       1.0     0.217894     0.540693     0.155062    Uiso  ? Al
   Al14       1.0     0.776902     0.424846     0.904467    Uiso  ? Al
   Al15       1.0     0.887434     0.534947     0.648669    Uiso  ? Al
   Al16       1.0     0.443501     0.429152     0.404952    Uiso  ? Al
   Al17       1.0     0.556998     0.544198     0.153368    Uiso  ? Al
   Al18       1.0     0.221719     0.535521     0.654324    Uiso  ? Al
   Al19       1.0     0.774115     0.433392     0.399561    Uiso  ? Al
   Al20       1.0     0.894568     0.533453     0.159133    Uiso  ? Al
   Al21       1.0     0.437793     0.439806     0.897788    Uiso  ? Al
   Al22       1.0     0.559760     0.533875     0.653290    Uiso  ? Al
   Al23       1.0     0.116321     0.754310     0.401584    Uiso  ? Al
   Al24       1.0     0.446830     0.758684     0.401420    Uiso  ? Al
   Al25       1.0     0.554506     0.866353     0.158664    Uiso  ? Al
   Al26       1.0     0.113656     0.759641     0.909999    Uiso  ? Al
   Al27       1.0     0.776664     0.757583     0.407362    Uiso  ? Al
   Al28       1.0     0.900622     0.857798     0.160808    Uiso  ? Al
   Al29       1.0     0.444493     0.757984     0.907579    Uiso  ? Al
   Al30       1.0     0.555452     0.871600     0.647478    Uiso  ? Al
   Hf1        1.0     0.554687     0.205735     0.129637    Uiso  ? Hf
   Hf2        1.0     0.778090     0.762397     0.898168    Uiso  ? Hf
   Hf3        1.0     0.219458     0.874349     0.646765    Uiso  ? Hf
   Mg1        1.0     0.115817     0.422715     0.902748    Uiso  ? Mg
   Mg2        1.0     0.223775     0.870991     0.153880    Uiso  ? Mg
   Mg3        1.0     0.887329     0.869318     0.634913    Uiso  ? Mg
   N1         1.0     0.226005     0.204921     0.346548    Uiso  ? N
   N2         1.0     0.109909     0.106200     0.097656    Uiso  ? N
   N3         1.0     0.890885     0.207753     0.864532    Uiso  ? N
   N4         1.0     0.766078     0.112976     0.634987    Uiso  ? N
   N5         1.0     0.550431     0.207898     0.344594    Uiso  ? N
   N6         1.0     0.436477     0.080473     0.089810    Uiso  ? N
   N7         1.0     0.225135     0.191357     0.837742    Uiso  ? N
   N8         1.0     0.101856     0.114196     0.587790    Uiso  ? N
   N9         1.0     0.889276     0.210480     0.357644    Uiso  ? N
   N10        1.0     0.798541     0.082334     0.143820    Uiso  ? N
   N11        1.0     0.548829     0.207649     0.860123    Uiso  ? N
   N12        1.0     0.442862     0.095220     0.595039    Uiso  ? N
   N13        1.0     0.226429     0.535455     0.345127    Uiso  ? N
   N14        1.0     0.114243     0.425600     0.109124    Uiso  ? N
   N15        1.0     0.881855     0.530294     0.836848    Uiso  ? N
   N16        1.0     0.772370     0.434190     0.588516    Uiso  ? N
   N17        1.0     0.554008     0.538910     0.343765    Uiso  ? N
   N18        1.0     0.436443     0.448677     0.089412    Uiso  ? N
   N19        1.0     0.226574     0.548764     0.839979    Uiso  ? N
   N20        1.0     0.110817     0.427939     0.594015    Uiso  ? N
   N21        1.0     0.889475     0.538503     0.348153    Uiso  ? N
   N22        1.0     0.777109     0.430793     0.098339    Uiso  ? N
   N23        1.0     0.557154     0.538584     0.842923    Uiso  ? N
   N24        1.0     0.443845     0.427477     0.595558    Uiso  ? N
   N25        1.0     0.223166     0.873010     0.366158    Uiso  ? N
   N26        1.0     0.107187     0.750644     0.096726    Uiso  ? N
   N27        1.0     0.899877     0.878040     0.848528    Uiso  ? N
   N28        1.0     0.769382     0.751707     0.595427    Uiso  ? N
   N29        1.0     0.555038     0.873155     0.347899    Uiso  ? N
   N30        1.0     0.461916     0.752844     0.092859    Uiso  ? N
   N31        1.0     0.222760     0.872268     0.856967    Uiso  ? N
   N32        1.0     0.120897     0.742464     0.586681    Uiso  ? N
   N33        1.0     0.892157     0.864573     0.354812    Uiso  ? N
   N34        1.0     0.778708     0.759697     0.107483    Uiso  ? N
   N35        1.0     0.539842     0.877905     0.837066    Uiso  ? N
   N36        1.0     0.459147     0.750700     0.591697    Uiso  ? N
