
#======================================================================
# CRYSTAL DATA
#----------------------------------------------------------------------
data_VESTA_phase_1

_chemical_name_common                  'Al   Hf   Mg   N                      '
_cell_length_a                         9.593898
_cell_length_b                         9.635800
_cell_length_c                         10.261173
_cell_angle_alpha                      90.174377
_cell_angle_beta                       90.076698
_cell_angle_gamma                      60.053307
_cell_volume                           821.942705
_space_group_name_H-M_alt              'P 1'
_space_group_IT_number                 1

loop_
_space_group_symop_operation_xyz
   'x, y, z'

loop_
   _atom_site_label
   _atom_site_occupancy
   _atom_site_fract_x
   _atom_site_fract_y
   _atom_site_fract_z
   _atom_site_adp_type
   _atom_site_U_iso_or_equiv
   _atom_site_type_symbol
   Al1        1.0     0.106932     0.102135     0.326903    Uiso  ? Al
   Al2        1.0     0.214923     0.202808     0.075557    Uiso  ? Al
   Al3        1.0     0.777302     0.102655     0.820243    Uiso  ? Al
   Al4        1.0     0.881970     0.215622     0.574501    Uiso  ? Al
   Al5        1.0     0.441139     0.090622     0.327935    Uiso  ? Al
   Al6        1.0     0.107770     0.102605     0.827990    Uiso  ? Al
   Al7        1.0     0.218568     0.215179     0.572172    Uiso  ? Al
   Al8        1.0     0.786314     0.090162     0.326032    Uiso  ? Al
   Al9        1.0     0.894721     0.207402     0.075257    Uiso  ? Al
   Al10       1.0     0.436841     0.097005     0.820729    Uiso  ? Al
   Al11       1.0     0.558187     0.202691     0.571759    Uiso  ? Al
   Al12       1.0     0.110302     0.423420     0.324982    Uiso  ? Al
   Al13       1.0     0.217902     0.544036     0.140805    Uiso  ? Al
   Al14       1.0     0.783259     0.421584     0.824118    Uiso  ? Al
   Al15       1.0     0.892345     0.535310     0.568002    Uiso  ? Al
   Al16       1.0     0.440628     0.434089     0.390894    Uiso  ? Al
   Al17       1.0     0.552455     0.543756     0.142645    Uiso  ? Al
   Al18       1.0     0.225365     0.535529     0.640964    Uiso  ? Al
   Al19       1.0     0.783148     0.423203     0.323829    Uiso  ? Al
   Al20       1.0     0.889299     0.532222     0.079043    Uiso  ? Al
   Al21       1.0     0.437549     0.441193     0.886347    Uiso  ? Al
   Al22       1.0     0.557788     0.533914     0.640417    Uiso  ? Al
   Al23       1.0     0.113695     0.753566     0.387829    Uiso  ? Al
   Al24       1.0     0.449539     0.754087     0.387390    Uiso  ? Al
   Al25       1.0     0.553936     0.869949     0.077915    Uiso  ? Al
   Al26       1.0     0.120264     0.759231     0.894644    Uiso  ? Al
   Al27       1.0     0.780265     0.760665     0.318168    Uiso  ? Al
   Al28       1.0     0.892077     0.871244     0.081437    Uiso  ? Al
   Al29       1.0     0.439221     0.756607     0.895724    Uiso  ? Al
   Al30       1.0     0.563707     0.872506     0.567043    Uiso  ? Al
   Hf1        1.0     0.555352     0.201874     0.086172    Uiso  ? Hf
   Hf2        1.0     0.778798     0.759231     0.828878    Uiso  ? Hf
   Hf3        1.0     0.224218     0.870284     0.618850    Uiso  ? Hf
   Mg1        1.0     0.113015     0.419851     0.830146    Uiso  ? Mg
   Mg2        1.0     0.223587     0.867663     0.143523    Uiso  ? Mg
   Mg3        1.0     0.877442     0.879442     0.570005    Uiso  ? Mg
   N1         1.0     0.223083     0.205487     0.385770    Uiso  ? N
   N2         1.0     0.100770     0.110959     0.142265    Uiso  ? N
   N3         1.0     0.888045     0.206838     0.886697    Uiso  ? N
   N4         1.0     0.769289     0.112899     0.635900    Uiso  ? N
   N5         1.0     0.558157     0.200792     0.371345    Uiso  ? N
   N6         1.0     0.433591     0.083937     0.141347    Uiso  ? N
   N7         1.0     0.229942     0.189547     0.891252    Uiso  ? N
   N8         1.0     0.098026     0.120410     0.636228    Uiso  ? N
   N9         1.0     0.886942     0.207600     0.387751    Uiso  ? N
   N10        1.0     0.795301     0.089320     0.137608    Uiso  ? N
   N11        1.0     0.553672     0.204324     0.879569    Uiso  ? N
   N12        1.0     0.444903     0.093074     0.630236    Uiso  ? N
   N13        1.0     0.226751     0.538171     0.328101    Uiso  ? N
   N14        1.0     0.110284     0.422148     0.133343    Uiso  ? N
   N15        1.0     0.880905     0.529292     0.895912    Uiso  ? N
   N16        1.0     0.784514     0.427636     0.633494    Uiso  ? N
   N17        1.0     0.551321     0.539201     0.331028    Uiso  ? N
   N18        1.0     0.434219     0.447658     0.078866    Uiso  ? N
   N19        1.0     0.228505     0.550966     0.826371    Uiso  ? N
   N20        1.0     0.109408     0.428523     0.620778    Uiso  ? N
   N21        1.0     0.887409     0.539577     0.378502    Uiso  ? N
   N22        1.0     0.780950     0.422706     0.135925    Uiso  ? N
   N23        1.0     0.552410     0.541078     0.829349    Uiso  ? N
   N24        1.0     0.444415     0.429875     0.578532    Uiso  ? N
   N25        1.0     0.222269     0.875478     0.363326    Uiso  ? N
   N26        1.0     0.112187     0.749590     0.079483    Uiso  ? N
   N27        1.0     0.888542     0.889461     0.885869    Uiso  ? N
   N28        1.0     0.772844     0.751809     0.628653    Uiso  ? N
   N29        1.0     0.561051     0.872927     0.378369    Uiso  ? N
   N30        1.0     0.454556     0.749169     0.080942    Uiso  ? N
   N31        1.0     0.223592     0.871116     0.831283    Uiso  ? N
   N32        1.0     0.118547     0.740623     0.573263    Uiso  ? N
   N33        1.0     0.888406     0.871393     0.363772    Uiso  ? N
   N34        1.0     0.776717     0.761044     0.126934    Uiso  ? N
   N35        1.0     0.541835     0.884547     0.886040    Uiso  ? N
   N36        1.0     0.466586     0.744341     0.576889    Uiso  ? N
