
#======================================================================
# CRYSTAL DATA
#----------------------------------------------------------------------
data_VESTA_phase_1

_chemical_name_common                  'Al   Hf   Mg   N                      '
_cell_length_a                         9.627088
_cell_length_b                         9.666521
_cell_length_c                         10.158180
_cell_angle_alpha                      90.222321
_cell_angle_beta                       89.990868
_cell_angle_gamma                      60.119503
_cell_volume                           819.650772
_space_group_name_H-M_alt              'P 1'
_space_group_IT_number                 1

loop_
_space_group_symop_operation_xyz
   'x, y, z'

loop_
   _atom_site_label
   _atom_site_occupancy
   _atom_site_fract_x
   _atom_site_fract_y
   _atom_site_fract_z
   _atom_site_adp_type
   _atom_site_U_iso_or_equiv
   _atom_site_type_symbol
   Al1        1.0     0.106768     0.103021     0.327022    Uiso  ? Al
   Al2        1.0     0.215348     0.203797     0.075685    Uiso  ? Al
   Al3        1.0     0.777228     0.102030     0.821020    Uiso  ? Al
   Al4        1.0     0.882527     0.215479     0.575475    Uiso  ? Al
   Al5        1.0     0.441238     0.091172     0.329825    Uiso  ? Al
   Al6        1.0     0.107525     0.101677     0.826853    Uiso  ? Al
   Al7        1.0     0.219097     0.215401     0.573666    Uiso  ? Al
   Al8        1.0     0.787567     0.089604     0.327293    Uiso  ? Al
   Al9        1.0     0.894258     0.207969     0.075226    Uiso  ? Al
   Al10       1.0     0.436796     0.096424     0.822035    Uiso  ? Al
   Al11       1.0     0.558676     0.201605     0.572908    Uiso  ? Al
   Al12       1.0     0.111117     0.423525     0.326559    Uiso  ? Al
   Al13       1.0     0.218029     0.544009     0.140524    Uiso  ? Al
   Al14       1.0     0.784688     0.420081     0.825295    Uiso  ? Al
   Al15       1.0     0.892690     0.535504     0.569130    Uiso  ? Al
   Al16       1.0     0.441338     0.434713     0.392622    Uiso  ? Al
   Al17       1.0     0.555668     0.538740     0.142707    Uiso  ? Al
   Al18       1.0     0.225872     0.535262     0.641192    Uiso  ? Al
   Al19       1.0     0.783261     0.423122     0.326290    Uiso  ? Al
   Al20       1.0     0.890039     0.532160     0.080048    Uiso  ? Al
   Al21       1.0     0.437744     0.439366     0.887778    Uiso  ? Al
   Al22       1.0     0.559199     0.531914     0.639804    Uiso  ? Al
   Al23       1.0     0.113271     0.752414     0.386979    Uiso  ? Al
   Al24       1.0     0.447240     0.762508     0.332627    Uiso  ? Al
   Al25       1.0     0.551570     0.869758     0.080430    Uiso  ? Al
   Al26       1.0     0.119169     0.758435     0.892295    Uiso  ? Al
   Al27       1.0     0.780643     0.760328     0.318941    Uiso  ? Al
   Al28       1.0     0.891356     0.871088     0.081859    Uiso  ? Al
   Al29       1.0     0.439503     0.760162     0.854356    Uiso  ? Al
   Al30       1.0     0.561805     0.868375     0.567796    Uiso  ? Al
   Hf1        1.0     0.555804     0.202385     0.090780    Uiso  ? Hf
   Hf2        1.0     0.777798     0.758711     0.830949    Uiso  ? Hf
   Hf3        1.0     0.224060     0.873085     0.604846    Uiso  ? Hf
   Mg1        1.0     0.113755     0.419296     0.830974    Uiso  ? Mg
   Mg2        1.0     0.215333     0.874548     0.127927    Uiso  ? Mg
   Mg3        1.0     0.878545     0.878337     0.572547    Uiso  ? Mg
   N1         1.0     0.223429     0.205556     0.385569    Uiso  ? N
   N2         1.0     0.099765     0.113169     0.141460    Uiso  ? N
   N3         1.0     0.888187     0.206126     0.886064    Uiso  ? N
   N4         1.0     0.769538     0.112786     0.635192    Uiso  ? N
   N5         1.0     0.558620     0.200923     0.369899    Uiso  ? N
   N6         1.0     0.433186     0.085240     0.141352    Uiso  ? N
   N7         1.0     0.229807     0.188917     0.890199    Uiso  ? N
   N8         1.0     0.097784     0.121727     0.635800    Uiso  ? N
   N9         1.0     0.887888     0.207098     0.387441    Uiso  ? N
   N10        1.0     0.796568     0.088706     0.137251    Uiso  ? N
   N11        1.0     0.554135     0.202276     0.881485    Uiso  ? N
   N12        1.0     0.445983     0.092030     0.630127    Uiso  ? N
   N13        1.0     0.227934     0.537548     0.329153    Uiso  ? N
   N14        1.0     0.110640     0.422555     0.132958    Uiso  ? N
   N15        1.0     0.882029     0.528566     0.895168    Uiso  ? N
   N16        1.0     0.784632     0.427373     0.633255    Uiso  ? N
   N17        1.0     0.554545     0.535701     0.336790    Uiso  ? N
   N18        1.0     0.434232     0.447863     0.080433    Uiso  ? N
   N19        1.0     0.229657     0.549298     0.827948    Uiso  ? N
   N20        1.0     0.109769     0.428839     0.620083    Uiso  ? N
   N21        1.0     0.888127     0.539599     0.378011    Uiso  ? N
   N22        1.0     0.781689     0.422329     0.135558    Uiso  ? N
   N23        1.0     0.555822     0.536076     0.835695    Uiso  ? N
   N24        1.0     0.445225     0.428049     0.581281    Uiso  ? N
   N25        1.0     0.221465     0.877553     0.369472    Uiso  ? N
   N26        1.0     0.110303     0.748740     0.079516    Uiso  ? N
   N27        1.0     0.887920     0.888572     0.884563    Uiso  ? N
   N28        1.0     0.773041     0.751743     0.628955    Uiso  ? N
   N29        1.0     0.560088     0.871895     0.379293    Uiso  ? N
   N30        1.0     0.454918     0.756151     0.127260    Uiso  ? N
   N31        1.0     0.217974     0.873814     0.833813    Uiso  ? N
   N32        1.0     0.118999     0.739298     0.574293    Uiso  ? N
   N33        1.0     0.888674     0.871021     0.363508    Uiso  ? N
   N34        1.0     0.776286     0.761481     0.125490    Uiso  ? N
   N35        1.0     0.539004     0.881600     0.889938    Uiso  ? N
   N36        1.0     0.466280     0.749928     0.614524    Uiso  ? N
