
#======================================================================
# CRYSTAL DATA
#----------------------------------------------------------------------
data_VESTA_phase_1

_chemical_name_common                  'Al   Hf   Mg   N                      '
_cell_length_a                         9.612474
_cell_length_b                         9.633722
_cell_length_c                         10.164377
_cell_angle_alpha                      89.886017
_cell_angle_beta                       89.887428
_cell_angle_gamma                      60.010578
_cell_volume                           815.240746
_space_group_name_H-M_alt              'P 1'
_space_group_IT_number                 1

loop_
_space_group_symop_operation_xyz
   'x, y, z'

loop_
   _atom_site_label
   _atom_site_occupancy
   _atom_site_fract_x
   _atom_site_fract_y
   _atom_site_fract_z
   _atom_site_adp_type
   _atom_site_U_iso_or_equiv
   _atom_site_type_symbol
   Al1        1.0     0.109018     0.097681     0.325273    Uiso  ? Al
   Al2        1.0     0.215951     0.204761     0.077423    Uiso  ? Al
   Al3        1.0     0.780567     0.100317     0.818991    Uiso  ? Al
   Al4        1.0     0.881504     0.215761     0.575141    Uiso  ? Al
   Al5        1.0     0.441847     0.091117     0.331637    Uiso  ? Al
   Al6        1.0     0.106699     0.102168     0.828587    Uiso  ? Al
   Al7        1.0     0.218343     0.214412     0.573083    Uiso  ? Al
   Al8        1.0     0.784621     0.091875     0.327690    Uiso  ? Al
   Al9        1.0     0.892685     0.208986     0.076483    Uiso  ? Al
   Al10       1.0     0.435673     0.095255     0.821310    Uiso  ? Al
   Al11       1.0     0.555661     0.207157     0.573365    Uiso  ? Al
   Al12       1.0     0.108492     0.423466     0.329670    Uiso  ? Al
   Al13       1.0     0.215484     0.546225     0.144666    Uiso  ? Al
   Al14       1.0     0.777090     0.424280     0.824854    Uiso  ? Al
   Al15       1.0     0.890559     0.535798     0.569968    Uiso  ? Al
   Al16       1.0     0.447990     0.429794     0.333016    Uiso  ? Al
   Al17       1.0     0.559176     0.541892     0.076049    Uiso  ? Al
   Al18       1.0     0.218840     0.538322     0.640253    Uiso  ? Al
   Al19       1.0     0.776950     0.427071     0.324844    Uiso  ? Al
   Al20       1.0     0.889992     0.532447     0.081482    Uiso  ? Al
   Al21       1.0     0.448679     0.429800     0.818627    Uiso  ? Al
   Al22       1.0     0.563154     0.532839     0.574381    Uiso  ? Al
   Al23       1.0     0.112805     0.754463     0.388487    Uiso  ? Al
   Al24       1.0     0.448497     0.758567     0.325169    Uiso  ? Al
   Al25       1.0     0.552381     0.868196     0.080887    Uiso  ? Al
   Al26       1.0     0.120441     0.755036     0.892589    Uiso  ? Al
   Al27       1.0     0.779038     0.760725     0.320164    Uiso  ? Al
   Al28       1.0     0.893090     0.871687     0.084329    Uiso  ? Al
   Al29       1.0     0.446814     0.755777     0.827702    Uiso  ? Al
   Al30       1.0     0.560013     0.868672     0.571050    Uiso  ? Al
   Hf1        1.0     0.553827     0.205541     0.080145    Uiso  ? Hf
   Hf2        1.0     0.778970     0.759205     0.832650    Uiso  ? Hf
   Hf3        1.0     0.222484     0.874973     0.601530    Uiso  ? Hf
   Mg1        1.0     0.112317     0.418780     0.832175    Uiso  ? Mg
   Mg2        1.0     0.226329     0.876842     0.089821    Uiso  ? Mg
   Mg3        1.0     0.874900     0.879947     0.570982    Uiso  ? Mg
   N1         1.0     0.222624     0.203822     0.385413    Uiso  ? N
   N2         1.0     0.101221     0.110251     0.140172    Uiso  ? N
   N3         1.0     0.886512     0.207797     0.886650    Uiso  ? N
   N4         1.0     0.770172     0.111722     0.634076    Uiso  ? N
   N5         1.0     0.556429     0.203870     0.378082    Uiso  ? N
   N6         1.0     0.436065     0.085467     0.142305    Uiso  ? N
   N7         1.0     0.229975     0.188603     0.892118    Uiso  ? N
   N8         1.0     0.095929     0.121947     0.638221    Uiso  ? N
   N9         1.0     0.887947     0.207457     0.386256    Uiso  ? N
   N10        1.0     0.791960     0.091168     0.137523    Uiso  ? N
   N11        1.0     0.553032     0.205556     0.874281    Uiso  ? N
   N12        1.0     0.444071     0.092021     0.630571    Uiso  ? N
   N13        1.0     0.221011     0.539865     0.336233    Uiso  ? N
   N14        1.0     0.110371     0.422869     0.135072    Uiso  ? N
   N15        1.0     0.880613     0.527943     0.896142    Uiso  ? N
   N16        1.0     0.778088     0.430088     0.634810    Uiso  ? N
   N17        1.0     0.557463     0.538831     0.386636    Uiso  ? N
   N18        1.0     0.445442     0.439735     0.138496    Uiso  ? N
   N19        1.0     0.226464     0.548407     0.829783    Uiso  ? N
   N20        1.0     0.107560     0.428033     0.619798    Uiso  ? N
   N21        1.0     0.885508     0.539733     0.378927    Uiso  ? N
   N22        1.0     0.776066     0.425854     0.137000    Uiso  ? N
   N23        1.0     0.556646     0.536578     0.885458    Uiso  ? N
   N24        1.0     0.451111     0.424524     0.626867    Uiso  ? N
   N25        1.0     0.226379     0.875973     0.381180    Uiso  ? N
   N26        1.0     0.113541     0.749419     0.080565    Uiso  ? N
   N27        1.0     0.888730     0.888932     0.886774    Uiso  ? N
   N28        1.0     0.772214     0.751651     0.630540    Uiso  ? N
   N29        1.0     0.558221     0.870368     0.383293    Uiso  ? N
   N30        1.0     0.461361     0.750686     0.139555    Uiso  ? N
   N31        1.0     0.220570     0.873983     0.844161    Uiso  ? N
   N32        1.0     0.115117     0.743357     0.577130    Uiso  ? N
   N33        1.0     0.887605     0.872003     0.362995    Uiso  ? N
   N34        1.0     0.777352     0.761492     0.126417    Uiso  ? N
   N35        1.0     0.539057     0.879637     0.890591    Uiso  ? N
   N36        1.0     0.468157     0.747240     0.637969    Uiso  ? N
