
#======================================================================
# CRYSTAL DATA
#----------------------------------------------------------------------
data_VESTA_phase_1

_chemical_name_common                  'Al   Hf   Mg   N                      '
_cell_length_a                         9.625773
_cell_length_b                         9.659001
_cell_length_c                         10.224420
_cell_angle_alpha                      90.427658
_cell_angle_beta                       90.199318
_cell_angle_gamma                      60.021027
_cell_volume                           823.411674
_space_group_name_H-M_alt              'P 1'
_space_group_IT_number                 1

loop_
_space_group_symop_operation_xyz
   'x, y, z'

loop_
   _atom_site_label
   _atom_site_occupancy
   _atom_site_fract_x
   _atom_site_fract_y
   _atom_site_fract_z
   _atom_site_adp_type
   _atom_site_U_iso_or_equiv
   _atom_site_type_symbol
   Al1        1.0     0.107934     0.100250     0.329002    Uiso  ? Al
   Al2        1.0     0.215918     0.201864     0.079012    Uiso  ? Al
   Al3        1.0     0.776866     0.105813     0.818503    Uiso  ? Al
   Al4        1.0     0.882807     0.217686     0.577645    Uiso  ? Al
   Al5        1.0     0.438345     0.096319     0.335941    Uiso  ? Al
   Al6        1.0     0.107237     0.103295     0.834714    Uiso  ? Al
   Al7        1.0     0.216408     0.216596     0.575396    Uiso  ? Al
   Al8        1.0     0.782196     0.097084     0.334867    Uiso  ? Al
   Al9        1.0     0.894407     0.205603     0.078932    Uiso  ? Al
   Al10       1.0     0.433442     0.100994     0.819972    Uiso  ? Al
   Al11       1.0     0.556024     0.206760     0.573808    Uiso  ? Al
   Al12       1.0     0.111206     0.422563     0.328276    Uiso  ? Al
   Al13       1.0     0.218437     0.542172     0.142154    Uiso  ? Al
   Al14       1.0     0.782266     0.422800     0.829524    Uiso  ? Al
   Al15       1.0     0.893592     0.533667     0.574293    Uiso  ? Al
   Al16       1.0     0.439429     0.436083     0.394093    Uiso  ? Al
   Al17       1.0     0.553252     0.541768     0.144720    Uiso  ? Al
   Al18       1.0     0.224732     0.536477     0.645740    Uiso  ? Al
   Al19       1.0     0.782890     0.422517     0.327473    Uiso  ? Al
   Al20       1.0     0.890006     0.530113     0.083122    Uiso  ? Al
   Al21       1.0     0.436564     0.443524     0.889042    Uiso  ? Al
   Al22       1.0     0.558051     0.534241     0.645028    Uiso  ? Al
   Al23       1.0     0.116442     0.753466     0.392670    Uiso  ? Al
   Al24       1.0     0.448048     0.754295     0.392805    Uiso  ? Al
   Al25       1.0     0.553700     0.861565     0.146991    Uiso  ? Al
   Al26       1.0     0.111069     0.764489     0.897767    Uiso  ? Al
   Al27       1.0     0.783915     0.751540     0.334727    Uiso  ? Al
   Al28       1.0     0.900698     0.862404     0.147245    Uiso  ? Al
   Al29       1.0     0.442806     0.761851     0.899378    Uiso  ? Al
   Al30       1.0     0.558081     0.871732     0.609442    Uiso  ? Al
   Hf1        1.0     0.557914     0.197013     0.084267    Uiso  ? Hf
   Hf2        1.0     0.778487     0.759769     0.837128    Uiso  ? Hf
   Hf3        1.0     0.224582     0.869722     0.629011    Uiso  ? Hf
   Mg1        1.0     0.112659     0.421671     0.835614    Uiso  ? Mg
   Mg2        1.0     0.224028     0.866364     0.141963    Uiso  ? Mg
   Mg3        1.0     0.886470     0.877938     0.611089    Uiso  ? Mg
   N1         1.0     0.220915     0.206041     0.389076    Uiso  ? N
   N2         1.0     0.101496     0.109468     0.143711    Uiso  ? N
   N3         1.0     0.886590     0.207839     0.890364    Uiso  ? N
   N4         1.0     0.765788     0.120870     0.632770    Uiso  ? N
   N5         1.0     0.557274     0.202117     0.377373    Uiso  ? N
   N6         1.0     0.432417     0.087326     0.146448    Uiso  ? N
   N7         1.0     0.229987     0.191071     0.894806    Uiso  ? N
   N8         1.0     0.098699     0.119349     0.640704    Uiso  ? N
   N9         1.0     0.888726     0.208058     0.391006    Uiso  ? N
   N10        1.0     0.793988     0.090360     0.143848    Uiso  ? N
   N11        1.0     0.553576     0.204650     0.878109    Uiso  ? N
   N12        1.0     0.441141     0.100330     0.627331    Uiso  ? N
   N13        1.0     0.226486     0.538328     0.330869    Uiso  ? N
   N14        1.0     0.110571     0.420953     0.137072    Uiso  ? N
   N15        1.0     0.881978     0.527523     0.900505    Uiso  ? N
   N16        1.0     0.784245     0.428641     0.638057    Uiso  ? N
   N17        1.0     0.551191     0.538949     0.334393    Uiso  ? N
   N18        1.0     0.435459     0.444729     0.082103    Uiso  ? N
   N19        1.0     0.227528     0.553087     0.831497    Uiso  ? N
   N20        1.0     0.109869     0.428836     0.625425    Uiso  ? N
   N21        1.0     0.890272     0.534264     0.385032    Uiso  ? N
   N22        1.0     0.781275     0.421253     0.139685    Uiso  ? N
   N23        1.0     0.551795     0.542550     0.834319    Uiso  ? N
   N24        1.0     0.442250     0.433722     0.582314    Uiso  ? N
   N25        1.0     0.222528     0.874542     0.364070    Uiso  ? N
   N26        1.0     0.105772     0.750981     0.083061    Uiso  ? N
   N27        1.0     0.896183     0.886970     0.845924    Uiso  ? N
   N28        1.0     0.776228     0.748903     0.628596    Uiso  ? N
   N29        1.0     0.557054     0.868301     0.354630    Uiso  ? N
   N30        1.0     0.458957     0.750286     0.084479    Uiso  ? N
   N31        1.0     0.223080     0.871689     0.840402    Uiso  ? N
   N32        1.0     0.119950     0.741217     0.575161    Uiso  ? N
   N33        1.0     0.894846     0.867988     0.346211    Uiso  ? N
   N34        1.0     0.780189     0.754554     0.136176    Uiso  ? N
   N35        1.0     0.535148     0.881654     0.842313    Uiso  ? N
   N36        1.0     0.465415     0.745538     0.579052    Uiso  ? N
