
#======================================================================
# CRYSTAL DATA
#----------------------------------------------------------------------
data_VESTA_phase_1

_chemical_name_common                  'Al   Hf   Mg   N                      '
_cell_length_a                         9.626175
_cell_length_b                         9.656995
_cell_length_c                         10.229407
_cell_angle_alpha                      90.404434
_cell_angle_beta                       90.172417
_cell_angle_gamma                      60.025349
_cell_volume                           823.714724
_space_group_name_H-M_alt              'P 1'
_space_group_IT_number                 1

loop_
_space_group_symop_operation_xyz
   'x, y, z'

loop_
   _atom_site_label
   _atom_site_occupancy
   _atom_site_fract_x
   _atom_site_fract_y
   _atom_site_fract_z
   _atom_site_adp_type
   _atom_site_U_iso_or_equiv
   _atom_site_type_symbol
   Al1        1.0     0.107985     0.100152     0.329030    Uiso  ? Al
   Al2        1.0     0.215958     0.201965     0.079152    Uiso  ? Al
   Al3        1.0     0.776996     0.105836     0.818440    Uiso  ? Al
   Al4        1.0     0.882749     0.217635     0.577538    Uiso  ? Al
   Al5        1.0     0.438556     0.095735     0.335709    Uiso  ? Al
   Al6        1.0     0.107180     0.103145     0.834439    Uiso  ? Al
   Al7        1.0     0.216570     0.216534     0.575235    Uiso  ? Al
   Al8        1.0     0.782310     0.096941     0.334743    Uiso  ? Al
   Al9        1.0     0.894539     0.205596     0.078951    Uiso  ? Al
   Al10       1.0     0.432441     0.103095     0.820110    Uiso  ? Al
   Al11       1.0     0.555969     0.206409     0.573473    Uiso  ? Al
   Al12       1.0     0.111217     0.422552     0.328305    Uiso  ? Al
   Al13       1.0     0.218487     0.542245     0.142222    Uiso  ? Al
   Al14       1.0     0.782300     0.422669     0.829163    Uiso  ? Al
   Al15       1.0     0.893268     0.534142     0.574625    Uiso  ? Al
   Al16       1.0     0.439447     0.436224     0.393921    Uiso  ? Al
   Al17       1.0     0.553192     0.542488     0.144434    Uiso  ? Al
   Al18       1.0     0.224701     0.536346     0.645585    Uiso  ? Al
   Al19       1.0     0.782690     0.422694     0.327467    Uiso  ? Al
   Al20       1.0     0.890253     0.529915     0.083107    Uiso  ? Al
   Al21       1.0     0.436551     0.443616     0.889185    Uiso  ? Al
   Al22       1.0     0.558010     0.534013     0.644684    Uiso  ? Al
   Al23       1.0     0.116445     0.753351     0.392562    Uiso  ? Al
   Al24       1.0     0.449008     0.754984     0.393514    Uiso  ? Al
   Al25       1.0     0.553444     0.861385     0.149802    Uiso  ? Al
   Al26       1.0     0.111625     0.764405     0.897837    Uiso  ? Al
   Al27       1.0     0.783571     0.751600     0.334413    Uiso  ? Al
   Al28       1.0     0.900947     0.862421     0.146921    Uiso  ? Al
   Al29       1.0     0.442622     0.761766     0.898360    Uiso  ? Al
   Al30       1.0     0.556009     0.870852     0.625106    Uiso  ? Al
   Hf1        1.0     0.558034     0.197471     0.084869    Uiso  ? Hf
   Hf2        1.0     0.779840     0.759546     0.839655    Uiso  ? Hf
   Hf3        1.0     0.224052     0.869797     0.628194    Uiso  ? Hf
   Mg1        1.0     0.112777     0.421371     0.835301    Uiso  ? Mg
   Mg2        1.0     0.224716     0.866253     0.141853    Uiso  ? Mg
   Mg3        1.0     0.885796     0.877685     0.610940    Uiso  ? Mg
   N1         1.0     0.221070     0.205879     0.388953    Uiso  ? N
   N2         1.0     0.101576     0.109419     0.143801    Uiso  ? N
   N3         1.0     0.886610     0.207818     0.890364    Uiso  ? N
   N4         1.0     0.765692     0.120759     0.632822    Uiso  ? N
   N5         1.0     0.557328     0.201922     0.377098    Uiso  ? N
   N6         1.0     0.432281     0.087947     0.145482    Uiso  ? N
   N7         1.0     0.229901     0.190788     0.895035    Uiso  ? N
   N8         1.0     0.098578     0.119425     0.640646    Uiso  ? N
   N9         1.0     0.888668     0.208053     0.390980    Uiso  ? N
   N10        1.0     0.794300     0.090299     0.143921    Uiso  ? N
   N11        1.0     0.553846     0.204298     0.878646    Uiso  ? N
   N12        1.0     0.440613     0.101268     0.627713    Uiso  ? N
   N13        1.0     0.226526     0.538262     0.330798    Uiso  ? N
   N14        1.0     0.110536     0.421073     0.137126    Uiso  ? N
   N15        1.0     0.882451     0.526817     0.900449    Uiso  ? N
   N16        1.0     0.784185     0.428515     0.637900    Uiso  ? N
   N17        1.0     0.550942     0.539469     0.334226    Uiso  ? N
   N18        1.0     0.435403     0.445278     0.082016    Uiso  ? N
   N19        1.0     0.227591     0.552921     0.831404    Uiso  ? N
   N20        1.0     0.109786     0.428774     0.625337    Uiso  ? N
   N21        1.0     0.890147     0.534501     0.385077    Uiso  ? N
   N22        1.0     0.781277     0.421362     0.139694    Uiso  ? N
   N23        1.0     0.551839     0.542372     0.833950    Uiso  ? N
   N24        1.0     0.442240     0.433641     0.582040    Uiso  ? N
   N25        1.0     0.222791     0.874420     0.364535    Uiso  ? N
   N26        1.0     0.106241     0.751053     0.083062    Uiso  ? N
   N27        1.0     0.896740     0.887056     0.846362    Uiso  ? N
   N28        1.0     0.776450     0.748382     0.630860    Uiso  ? N
   N29        1.0     0.556706     0.867166     0.348278    Uiso  ? N
   N30        1.0     0.459657     0.750882     0.082748    Uiso  ? N
   N31        1.0     0.223129     0.871626     0.839859    Uiso  ? N
   N32        1.0     0.119476     0.741144     0.575015    Uiso  ? N
   N33        1.0     0.894739     0.867727     0.345990    Uiso  ? N
   N34        1.0     0.780454     0.754924     0.133898    Uiso  ? N
   N35        1.0     0.534195     0.880930     0.834010    Uiso  ? N
   N36        1.0     0.465553     0.745940     0.579303    Uiso  ? N
