
#======================================================================
# CRYSTAL DATA
#----------------------------------------------------------------------
data_VESTA_phase_1

_chemical_name_common                  'Al   Hf   Mg   N                      '
_cell_length_a                         9.623864
_cell_length_b                         9.655484
_cell_length_c                         10.069496
_cell_angle_alpha                      89.754753
_cell_angle_beta                       89.835938
_cell_angle_gamma                      60.074436
_cell_volume                           810.929398
_space_group_name_H-M_alt              'P 1'
_space_group_IT_number                 1

loop_
_space_group_symop_operation_xyz
   'x, y, z'

loop_
   _atom_site_label
   _atom_site_occupancy
   _atom_site_fract_x
   _atom_site_fract_y
   _atom_site_fract_z
   _atom_site_adp_type
   _atom_site_U_iso_or_equiv
   _atom_site_type_symbol
   Al1        1.0     0.108676     0.099177     0.319303    Uiso  ? Al
   Al2        1.0     0.216283     0.205171     0.070194    Uiso  ? Al
   Al3        1.0     0.779786     0.100989     0.813378    Uiso  ? Al
   Al4        1.0     0.881233     0.215867     0.568961    Uiso  ? Al
   Al5        1.0     0.441540     0.090963     0.325941    Uiso  ? Al
   Al6        1.0     0.106599     0.102914     0.822748    Uiso  ? Al
   Al7        1.0     0.217811     0.213374     0.567035    Uiso  ? Al
   Al8        1.0     0.784050     0.092773     0.322606    Uiso  ? Al
   Al9        1.0     0.892381     0.209597     0.070166    Uiso  ? Al
   Al10       1.0     0.436150     0.095052     0.815260    Uiso  ? Al
   Al11       1.0     0.555249     0.207032     0.567360    Uiso  ? Al
   Al12       1.0     0.112155     0.425431     0.319938    Uiso  ? Al
   Al13       1.0     0.220817     0.538171     0.077975    Uiso  ? Al
   Al14       1.0     0.777061     0.424294     0.818700    Uiso  ? Al
   Al15       1.0     0.890436     0.535651     0.563874    Uiso  ? Al
   Al16       1.0     0.444029     0.431808     0.324095    Uiso  ? Al
   Al17       1.0     0.558794     0.541911     0.069671    Uiso  ? Al
   Al18       1.0     0.224090     0.528157     0.575635    Uiso  ? Al
   Al19       1.0     0.777033     0.427130     0.319147    Uiso  ? Al
   Al20       1.0     0.890248     0.532193     0.075350    Uiso  ? Al
   Al21       1.0     0.442253     0.432004     0.814700    Uiso  ? Al
   Al22       1.0     0.562392     0.533011     0.568928    Uiso  ? Al
   Al23       1.0     0.112142     0.756878     0.375302    Uiso  ? Al
   Al24       1.0     0.449155     0.757652     0.319262    Uiso  ? Al
   Al25       1.0     0.552147     0.868317     0.074526    Uiso  ? Al
   Al26       1.0     0.117960     0.760978     0.887760    Uiso  ? Al
   Al27       1.0     0.779065     0.760079     0.313973    Uiso  ? Al
   Al28       1.0     0.892006     0.873365     0.082097    Uiso  ? Al
   Al29       1.0     0.447571     0.755182     0.822151    Uiso  ? Al
   Al30       1.0     0.560121     0.868098     0.565255    Uiso  ? Al
   Hf1        1.0     0.553885     0.205595     0.075846    Uiso  ? Hf
   Hf2        1.0     0.779771     0.758970     0.828232    Uiso  ? Hf
   Hf3        1.0     0.221802     0.874779     0.596289    Uiso  ? Hf
   Mg1        1.0     0.115207     0.421247     0.822313    Uiso  ? Mg
   Mg2        1.0     0.226373     0.878237     0.087980    Uiso  ? Mg
   Mg3        1.0     0.874744     0.880092     0.565701    Uiso  ? Mg
   N1         1.0     0.222211     0.204716     0.378039    Uiso  ? N
   N2         1.0     0.100704     0.112295     0.132951    Uiso  ? N
   N3         1.0     0.886504     0.207849     0.879511    Uiso  ? N
   N4         1.0     0.768973     0.112599     0.626795    Uiso  ? N
   N5         1.0     0.556181     0.204361     0.370376    Uiso  ? N
   N6         1.0     0.435999     0.084901     0.135110    Uiso  ? N
   N7         1.0     0.229776     0.189651     0.883866    Uiso  ? N
   N8         1.0     0.095325     0.121764     0.631120    Uiso  ? N
   N9         1.0     0.888023     0.207588     0.379380    Uiso  ? N
   N10        1.0     0.791277     0.092803     0.131384    Uiso  ? N
   N11        1.0     0.553624     0.204675     0.868344    Uiso  ? N
   N12        1.0     0.444042     0.091716     0.623120    Uiso  ? N
   N13        1.0     0.226081     0.531350     0.367313    Uiso  ? N
   N14        1.0     0.112884     0.424690     0.127810    Uiso  ? N
   N15        1.0     0.882203     0.526827     0.888512    Uiso  ? N
   N16        1.0     0.777735     0.429869     0.627429    Uiso  ? N
   N17        1.0     0.557079     0.537906     0.379803    Uiso  ? N
   N18        1.0     0.441189     0.441816     0.132669    Uiso  ? N
   N19        1.0     0.232248     0.539400     0.874518    Uiso  ? N
   N20        1.0     0.108373     0.427446     0.615503    Uiso  ? N
   N21        1.0     0.887327     0.539072     0.371133    Uiso  ? N
   N22        1.0     0.775779     0.425996     0.130041    Uiso  ? N
   N23        1.0     0.556839     0.535826     0.877815    Uiso  ? N
   N24        1.0     0.446284     0.426289     0.623486    Uiso  ? N
   N25        1.0     0.226293     0.876118     0.373178    Uiso  ? N
   N26        1.0     0.110058     0.756419     0.085091    Uiso  ? N
   N27        1.0     0.889306     0.889447     0.880887    Uiso  ? N
   N28        1.0     0.772248     0.751055     0.624270    Uiso  ? N
   N29        1.0     0.558390     0.869946     0.376269    Uiso  ? N
   N30        1.0     0.461991     0.750130     0.132352    Uiso  ? N
   N31        1.0     0.221479     0.874306     0.838233    Uiso  ? N
   N32        1.0     0.112684     0.746279     0.577499    Uiso  ? N
   N33        1.0     0.886936     0.872237     0.355926    Uiso  ? N
   N34        1.0     0.776940     0.761451     0.118673    Uiso  ? N
   N35        1.0     0.539209     0.879528     0.883211    Uiso  ? N
   N36        1.0     0.467791     0.746882     0.630892    Uiso  ? N
