
#======================================================================
# CRYSTAL DATA
#----------------------------------------------------------------------
data_VESTA_phase_1

_chemical_name_common                  'Al   Hf   Mg   N                      '
_cell_length_a                         9.624118
_cell_length_b                         9.648733
_cell_length_c                         10.207837
_cell_angle_alpha                      89.828758
_cell_angle_beta                       89.702629
_cell_angle_gamma                      60.031837
_cell_volume                           821.162171
_space_group_name_H-M_alt              'P 1'
_space_group_IT_number                 1

loop_
_space_group_symop_operation_xyz
   'x, y, z'

loop_
   _atom_site_label
   _atom_site_occupancy
   _atom_site_fract_x
   _atom_site_fract_y
   _atom_site_fract_z
   _atom_site_adp_type
   _atom_site_U_iso_or_equiv
   _atom_site_type_symbol
   Al1        1.0     0.107664     0.102988     0.332926    Uiso  ? Al
   Al2        1.0     0.210617     0.204044     0.081189    Uiso  ? Al
   Al3        1.0     0.773441     0.106058     0.829404    Uiso  ? Al
   Al4        1.0     0.883180     0.211673     0.581978    Uiso  ? Al
   Al5        1.0     0.444395     0.086676     0.395736    Uiso  ? Al
   Al6        1.0     0.104872     0.102661     0.834713    Uiso  ? Al
   Al7        1.0     0.217227     0.211442     0.585992    Uiso  ? Al
   Al8        1.0     0.787762     0.092530     0.338155    Uiso  ? Al
   Al9        1.0     0.897704     0.199126     0.083402    Uiso  ? Al
   Al10       1.0     0.441805     0.089236     0.898169    Uiso  ? Al
   Al11       1.0     0.557939     0.207367     0.584033    Uiso  ? Al
   Al12       1.0     0.109057     0.433462     0.396905    Uiso  ? Al
   Al13       1.0     0.214215     0.542634     0.148646    Uiso  ? Al
   Al14       1.0     0.773989     0.429436     0.900298    Uiso  ? Al
   Al15       1.0     0.886362     0.536600     0.644545    Uiso  ? Al
   Al16       1.0     0.439301     0.438058     0.394580    Uiso  ? Al
   Al17       1.0     0.558522     0.544141     0.147634    Uiso  ? Al
   Al18       1.0     0.224908     0.534505     0.650044    Uiso  ? Al
   Al19       1.0     0.773950     0.433867     0.398122    Uiso  ? Al
   Al20       1.0     0.895165     0.529475     0.155110    Uiso  ? Al
   Al21       1.0     0.439574     0.438123     0.898788    Uiso  ? Al
   Al22       1.0     0.562482     0.531092     0.649560    Uiso  ? Al
   Al23       1.0     0.112763     0.755266     0.398015    Uiso  ? Al
   Al24       1.0     0.450370     0.756834     0.398137    Uiso  ? Al
   Al25       1.0     0.555619     0.863202     0.155017    Uiso  ? Al
   Al26       1.0     0.114228     0.762187     0.900977    Uiso  ? Al
   Al27       1.0     0.778043     0.756934     0.403007    Uiso  ? Al
   Al28       1.0     0.899880     0.858570     0.156011    Uiso  ? Al
   Al29       1.0     0.442004     0.759727     0.899215    Uiso  ? Al
   Al30       1.0     0.559096     0.870197     0.644426    Uiso  ? Al
   Hf1        1.0     0.554062     0.206329     0.117929    Uiso  ? Hf
   Hf2        1.0     0.778721     0.761828     0.897290    Uiso  ? Hf
   Hf3        1.0     0.222962     0.870257     0.626349    Uiso  ? Hf
   Mg1        1.0     0.113579     0.431289     0.890539    Uiso  ? Mg
   Mg2        1.0     0.226687     0.865303     0.145424    Uiso  ? Mg
   Mg3        1.0     0.886429     0.871251     0.636680    Uiso  ? Mg
   N1         1.0     0.219000     0.205225     0.392485    Uiso  ? N
   N2         1.0     0.101771     0.109473     0.149330    Uiso  ? N
   N3         1.0     0.889845     0.200813     0.894458    Uiso  ? N
   N4         1.0     0.765088     0.119032     0.641845    Uiso  ? N
   N5         1.0     0.556114     0.205218     0.363147    Uiso  ? N
   N6         1.0     0.439713     0.076150     0.096813    Uiso  ? N
   N7         1.0     0.223257     0.191235     0.890987    Uiso  ? N
   N8         1.0     0.094660     0.121090     0.645210    Uiso  ? N
   N9         1.0     0.890677     0.202437     0.393748    Uiso  ? N
   N10        1.0     0.798043     0.086531     0.148335    Uiso  ? N
   N11        1.0     0.557703     0.204037     0.896917    Uiso  ? N
   N12        1.0     0.448996     0.089770     0.590051    Uiso  ? N
   N13        1.0     0.223074     0.538515     0.337219    Uiso  ? N
   N14        1.0     0.111778     0.427916     0.102336    Uiso  ? N
   N15        1.0     0.879992     0.531278     0.830657    Uiso  ? N
   N16        1.0     0.773093     0.435197     0.586219    Uiso  ? N
   N17        1.0     0.556076     0.539815     0.336375    Uiso  ? N
   N18        1.0     0.432629     0.453181     0.090868    Uiso  ? N
   N19        1.0     0.231058     0.548687     0.833867    Uiso  ? N
   N20        1.0     0.107853     0.435787     0.591399    Uiso  ? N
   N21        1.0     0.888484     0.537597     0.342579    Uiso  ? N
   N22        1.0     0.776680     0.430755     0.091956    Uiso  ? N
   N23        1.0     0.557321     0.536722     0.837923    Uiso  ? N
   N24        1.0     0.443116     0.432147     0.584045    Uiso  ? N
   N25        1.0     0.223110     0.874327     0.372141    Uiso  ? N
   N26        1.0     0.104975     0.753146     0.087543    Uiso  ? N
   N27        1.0     0.897041     0.879884     0.845358    Uiso  ? N
   N28        1.0     0.770988     0.753100     0.588897    Uiso  ? N
   N29        1.0     0.557022     0.868801     0.341811    Uiso  ? N
   N30        1.0     0.461586     0.752772     0.084069    Uiso  ? N
   N31        1.0     0.224600     0.869451     0.840230    Uiso  ? N
   N32        1.0     0.117140     0.741331     0.581070    Uiso  ? N
   N33        1.0     0.892382     0.863536     0.347673    Uiso  ? N
   N34        1.0     0.779079     0.758688     0.103962    Uiso  ? N
   N35        1.0     0.541500     0.878519     0.832234    Uiso  ? N
   N36        1.0     0.465763     0.747474     0.586360    Uiso  ? N
