
#======================================================================
# CRYSTAL DATA
#----------------------------------------------------------------------
data_VESTA_phase_1

_chemical_name_common                  'Al   Hf   Mg   N                      '
_cell_length_a                         9.595469
_cell_length_b                         9.641249
_cell_length_c                         10.264690
_cell_angle_alpha                      90.311905
_cell_angle_beta                       90.147270
_cell_angle_gamma                      60.000072
_cell_volume                           822.374956
_space_group_name_H-M_alt              'P 1'
_space_group_IT_number                 1

loop_
_space_group_symop_operation_xyz
   'x, y, z'

loop_
   _atom_site_label
   _atom_site_occupancy
   _atom_site_fract_x
   _atom_site_fract_y
   _atom_site_fract_z
   _atom_site_adp_type
   _atom_site_U_iso_or_equiv
   _atom_site_type_symbol
   Al1        1.0     0.107886     0.101308     0.330177    Uiso  ? Al
   Al2        1.0     0.215830     0.202362     0.079756    Uiso  ? Al
   Al3        1.0     0.779331     0.101697     0.820592    Uiso  ? Al
   Al4        1.0     0.882474     0.216680     0.578284    Uiso  ? Al
   Al5        1.0     0.441520     0.090959     0.332069    Uiso  ? Al
   Al6        1.0     0.107538     0.103509     0.833408    Uiso  ? Al
   Al7        1.0     0.218370     0.214994     0.576471    Uiso  ? Al
   Al8        1.0     0.782359     0.096600     0.332428    Uiso  ? Al
   Al9        1.0     0.895174     0.206564     0.078668    Uiso  ? Al
   Al10       1.0     0.436729     0.097178     0.824131    Uiso  ? Al
   Al11       1.0     0.556261     0.204342     0.576897    Uiso  ? Al
   Al12       1.0     0.110942     0.422588     0.329073    Uiso  ? Al
   Al13       1.0     0.220073     0.541273     0.144304    Uiso  ? Al
   Al14       1.0     0.783208     0.422879     0.828740    Uiso  ? Al
   Al15       1.0     0.892157     0.535042     0.573183    Uiso  ? Al
   Al16       1.0     0.440820     0.433773     0.395822    Uiso  ? Al
   Al17       1.0     0.553104     0.542514     0.146506    Uiso  ? Al
   Al18       1.0     0.223297     0.537424     0.645529    Uiso  ? Al
   Al19       1.0     0.783500     0.422656     0.327656    Uiso  ? Al
   Al20       1.0     0.889545     0.531326     0.082891    Uiso  ? Al
   Al21       1.0     0.436706     0.442878     0.888886    Uiso  ? Al
   Al22       1.0     0.557411     0.534475     0.645014    Uiso  ? Al
   Al23       1.0     0.116953     0.752010     0.389870    Uiso  ? Al
   Al24       1.0     0.448069     0.754048     0.392836    Uiso  ? Al
   Al25       1.0     0.554882     0.869061     0.081950    Uiso  ? Al
   Al26       1.0     0.113077     0.763673     0.901672    Uiso  ? Al
   Al27       1.0     0.776235     0.756067     0.325569    Uiso  ? Al
   Al28       1.0     0.897640     0.865107     0.130955    Uiso  ? Al
   Al29       1.0     0.439641     0.757105     0.899919    Uiso  ? Al
   Al30       1.0     0.561656     0.873307     0.572436    Uiso  ? Al
   Hf1        1.0     0.558024     0.198705     0.084191    Uiso  ? Hf
   Hf2        1.0     0.780123     0.760729     0.832789    Uiso  ? Hf
   Hf3        1.0     0.222450     0.869532     0.627065    Uiso  ? Hf
   Mg1        1.0     0.113352     0.420938     0.835117    Uiso  ? Mg
   Mg2        1.0     0.225842     0.866889     0.146510    Uiso  ? Mg
   Mg3        1.0     0.877592     0.879439     0.577163    Uiso  ? Mg
   N1         1.0     0.223262     0.205061     0.389883    Uiso  ? N
   N2         1.0     0.101639     0.110231     0.145496    Uiso  ? N
   N3         1.0     0.887313     0.207996     0.890301    Uiso  ? N
   N4         1.0     0.768817     0.114930     0.635433    Uiso  ? N
   N5         1.0     0.557689     0.200450     0.378877    Uiso  ? N
   N6         1.0     0.435351     0.083736     0.145616    Uiso  ? N
   N7         1.0     0.230266     0.190429     0.895630    Uiso  ? N
   N8         1.0     0.098596     0.119589     0.640738    Uiso  ? N
   N9         1.0     0.888185     0.207937     0.392038    Uiso  ? N
   N10        1.0     0.794213     0.092114     0.144273    Uiso  ? N
   N11        1.0     0.553824     0.205701     0.878941    Uiso  ? N
   N12        1.0     0.444026     0.093596     0.634538    Uiso  ? N
   N13        1.0     0.228143     0.536396     0.331539    Uiso  ? N
   N14        1.0     0.110495     0.421485     0.137805    Uiso  ? N
   N15        1.0     0.881535     0.529910     0.900401    Uiso  ? N
   N16        1.0     0.784226     0.428230     0.638022    Uiso  ? N
   N17        1.0     0.551451     0.538806     0.335361    Uiso  ? N
   N18        1.0     0.435877     0.445067     0.081981    Uiso  ? N
   N19        1.0     0.226762     0.554336     0.831110    Uiso  ? N
   N20        1.0     0.109291     0.428522     0.625530    Uiso  ? N
   N21        1.0     0.888146     0.537607     0.384093    Uiso  ? N
   N22        1.0     0.781642     0.421775     0.140177    Uiso  ? N
   N23        1.0     0.552315     0.542032     0.833342    Uiso  ? N
   N24        1.0     0.442654     0.431804     0.583453    Uiso  ? N
   N25        1.0     0.222525     0.874928     0.364896    Uiso  ? N
   N26        1.0     0.110586     0.749598     0.086668    Uiso  ? N
   N27        1.0     0.891067     0.889128     0.874032    Uiso  ? N
   N28        1.0     0.771807     0.752288     0.630575    Uiso  ? N
   N29        1.0     0.559259     0.873419     0.384212    Uiso  ? N
   N30        1.0     0.456111     0.747691     0.084530    Uiso  ? N
   N31        1.0     0.222927     0.871807     0.838116    Uiso  ? N
   N32        1.0     0.116801     0.741229     0.573376    Uiso  ? N
   N33        1.0     0.891708     0.868773     0.350352    Uiso  ? N
   N34        1.0     0.775307     0.757661     0.135416    Uiso  ? N
   N35        1.0     0.542109     0.885690     0.890797    Uiso  ? N
   N36        1.0     0.464085     0.745407     0.581861    Uiso  ? N
