
#======================================================================
# CRYSTAL DATA
#----------------------------------------------------------------------
data_VESTA_phase_1

_chemical_name_common                  'Al   Hf   Mg   N                      '
_cell_length_a                         9.593546
_cell_length_b                         9.617633
_cell_length_c                         10.085323
_cell_angle_alpha                      89.819885
_cell_angle_beta                       89.882904
_cell_angle_gamma                      60.026871
_cell_volume                           806.089250
_space_group_name_H-M_alt              'P 1'
_space_group_IT_number                 1

loop_
_space_group_symop_operation_xyz
   'x, y, z'

loop_
   _atom_site_label
   _atom_site_occupancy
   _atom_site_fract_x
   _atom_site_fract_y
   _atom_site_fract_z
   _atom_site_adp_type
   _atom_site_U_iso_or_equiv
   _atom_site_type_symbol
   Al1        1.0     0.108287     0.098872     0.317096    Uiso  ? Al
   Al2        1.0     0.216178     0.206054     0.070211    Uiso  ? Al
   Al3        1.0     0.781280     0.099880     0.814817    Uiso  ? Al
   Al4        1.0     0.881571     0.214463     0.569846    Uiso  ? Al
   Al5        1.0     0.441443     0.090896     0.325934    Uiso  ? Al
   Al6        1.0     0.108453     0.101949     0.823606    Uiso  ? Al
   Al7        1.0     0.218123     0.213013     0.567271    Uiso  ? Al
   Al8        1.0     0.783360     0.092314     0.324042    Uiso  ? Al
   Al9        1.0     0.892589     0.209208     0.070423    Uiso  ? Al
   Al10       1.0     0.436276     0.095306     0.815349    Uiso  ? Al
   Al11       1.0     0.555249     0.206435     0.568966    Uiso  ? Al
   Al12       1.0     0.112314     0.426684     0.320433    Uiso  ? Al
   Al13       1.0     0.218546     0.543470     0.071416    Uiso  ? Al
   Al14       1.0     0.777109     0.424419     0.819287    Uiso  ? Al
   Al15       1.0     0.890271     0.535284     0.563980    Uiso  ? Al
   Al16       1.0     0.442516     0.432823     0.325315    Uiso  ? Al
   Al17       1.0     0.557787     0.542100     0.070036    Uiso  ? Al
   Al18       1.0     0.220406     0.533910     0.566805    Uiso  ? Al
   Al19       1.0     0.776887     0.427073     0.319425    Uiso  ? Al
   Al20       1.0     0.891000     0.532428     0.075893    Uiso  ? Al
   Al21       1.0     0.440696     0.433013     0.815282    Uiso  ? Al
   Al22       1.0     0.561375     0.532748     0.569990    Uiso  ? Al
   Al23       1.0     0.110421     0.758677     0.315308    Uiso  ? Al
   Al24       1.0     0.448439     0.757256     0.317328    Uiso  ? Al
   Al25       1.0     0.551939     0.868242     0.074685    Uiso  ? Al
   Al26       1.0     0.117610     0.757776     0.828700    Uiso  ? Al
   Al27       1.0     0.778674     0.760670     0.314667    Uiso  ? Al
   Al28       1.0     0.896811     0.870866     0.079579    Uiso  ? Al
   Al29       1.0     0.446245     0.756746     0.822516    Uiso  ? Al
   Al30       1.0     0.559901     0.868333     0.565707    Uiso  ? Al
   Hf1        1.0     0.553570     0.206260     0.076564    Uiso  ? Hf
   Hf2        1.0     0.780647     0.759537     0.828442    Uiso  ? Hf
   Hf3        1.0     0.220415     0.873269     0.585555    Uiso  ? Hf
   Mg1        1.0     0.116726     0.423486     0.820125    Uiso  ? Mg
   Mg2        1.0     0.223572     0.875303     0.070633    Uiso  ? Mg
   Mg3        1.0     0.884331     0.873462     0.564135    Uiso  ? Mg
   N1         1.0     0.221891     0.204372     0.378202    Uiso  ? N
   N2         1.0     0.102120     0.110067     0.131794    Uiso  ? N
   N3         1.0     0.887082     0.207823     0.880011    Uiso  ? N
   N4         1.0     0.770586     0.109392     0.628178    Uiso  ? N
   N5         1.0     0.555069     0.205047     0.371848    Uiso  ? N
   N6         1.0     0.436137     0.085129     0.135658    Uiso  ? N
   N7         1.0     0.229594     0.192378     0.883732    Uiso  ? N
   N8         1.0     0.097701     0.117982     0.632023    Uiso  ? N
   N9         1.0     0.888242     0.207124     0.380219    Uiso  ? N
   N10        1.0     0.791737     0.091695     0.132496    Uiso  ? N
   N11        1.0     0.554115     0.204582     0.868900    Uiso  ? N
   N12        1.0     0.443863     0.091589     0.623768    Uiso  ? N
   N13        1.0     0.222703     0.538552     0.376383    Uiso  ? N
   N14        1.0     0.114306     0.425988     0.128886    Uiso  ? N
   N15        1.0     0.883236     0.527142     0.888635    Uiso  ? N
   N16        1.0     0.777621     0.429365     0.628166    Uiso  ? N
   N17        1.0     0.556668     0.538083     0.380791    Uiso  ? N
   N18        1.0     0.438787     0.443145     0.134775    Uiso  ? N
   N19        1.0     0.231652     0.543450     0.884893    Uiso  ? N
   N20        1.0     0.109038     0.428364     0.614132    Uiso  ? N
   N21        1.0     0.887244     0.539060     0.371494    Uiso  ? N
   N22        1.0     0.775644     0.426249     0.130415    Uiso  ? N
   N23        1.0     0.556502     0.535958     0.877979    Uiso  ? N
   N24        1.0     0.443250     0.427377     0.624250    Uiso  ? N
   N25        1.0     0.222744     0.872576     0.373026    Uiso  ? N
   N26        1.0     0.109323     0.753976     0.128909    Uiso  ? N
   N27        1.0     0.897152     0.885213     0.885795    Uiso  ? N
   N28        1.0     0.772463     0.751170     0.624716    Uiso  ? N
   N29        1.0     0.557102     0.869714     0.376758    Uiso  ? N
   N30        1.0     0.459328     0.751387     0.131559    Uiso  ? N
   N31        1.0     0.223034     0.875968     0.851219    Uiso  ? N
   N32        1.0     0.114080     0.743213     0.634466    Uiso  ? N
   N33        1.0     0.888252     0.871321     0.361093    Uiso  ? N
   N34        1.0     0.777122     0.762098     0.119142    Uiso  ? N
   N35        1.0     0.540254     0.879684     0.883475    Uiso  ? N
   N36        1.0     0.464336     0.748887     0.631328    Uiso  ? N
