
#======================================================================
# CRYSTAL DATA
#----------------------------------------------------------------------
data_VESTA_phase_1

_chemical_name_common                  'Al   Hf   Mg   N                      '
_cell_length_a                         9.636487
_cell_length_b                         9.660260
_cell_length_c                         10.155422
_cell_angle_alpha                      89.775139
_cell_angle_beta                       89.662857
_cell_angle_gamma                      60.017136
_cell_volume                           818.848099
_space_group_name_H-M_alt              'P 1'
_space_group_IT_number                 1

loop_
_space_group_symop_operation_xyz
   'x, y, z'

loop_
   _atom_site_label
   _atom_site_occupancy
   _atom_site_fract_x
   _atom_site_fract_y
   _atom_site_fract_z
   _atom_site_adp_type
   _atom_site_U_iso_or_equiv
   _atom_site_type_symbol
   Al1        1.0     0.108479     0.103214     0.332446    Uiso  ? Al
   Al2        1.0     0.211345     0.205226     0.085797    Uiso  ? Al
   Al3        1.0     0.773427     0.106407     0.828680    Uiso  ? Al
   Al4        1.0     0.883261     0.211710     0.580991    Uiso  ? Al
   Al5        1.0     0.440200     0.088336     0.398342    Uiso  ? Al
   Al6        1.0     0.104080     0.100888     0.835698    Uiso  ? Al
   Al7        1.0     0.220161     0.212704     0.612840    Uiso  ? Al
   Al8        1.0     0.787385     0.092527     0.338780    Uiso  ? Al
   Al9        1.0     0.896454     0.199515     0.083365    Uiso  ? Al
   Al10       1.0     0.442415     0.089714     0.895115    Uiso  ? Al
   Al11       1.0     0.558465     0.207439     0.582128    Uiso  ? Al
   Al12       1.0     0.111433     0.428630     0.399838    Uiso  ? Al
   Al13       1.0     0.214103     0.542041     0.148939    Uiso  ? Al
   Al14       1.0     0.773788     0.429831     0.900079    Uiso  ? Al
   Al15       1.0     0.886041     0.536635     0.644570    Uiso  ? Al
   Al16       1.0     0.438888     0.438221     0.394350    Uiso  ? Al
   Al17       1.0     0.558653     0.543770     0.147699    Uiso  ? Al
   Al18       1.0     0.225288     0.535323     0.650365    Uiso  ? Al
   Al19       1.0     0.774368     0.433826     0.397306    Uiso  ? Al
   Al20       1.0     0.894989     0.529741     0.155210    Uiso  ? Al
   Al21       1.0     0.439827     0.438170     0.898435    Uiso  ? Al
   Al22       1.0     0.562562     0.531045     0.649161    Uiso  ? Al
   Al23       1.0     0.112680     0.754387     0.397281    Uiso  ? Al
   Al24       1.0     0.450513     0.756973     0.397376    Uiso  ? Al
   Al25       1.0     0.554632     0.863905     0.154634    Uiso  ? Al
   Al26       1.0     0.114301     0.762420     0.900956    Uiso  ? Al
   Al27       1.0     0.778120     0.756894     0.402560    Uiso  ? Al
   Al28       1.0     0.899372     0.858893     0.155865    Uiso  ? Al
   Al29       1.0     0.442385     0.759477     0.899130    Uiso  ? Al
   Al30       1.0     0.559594     0.869249     0.644318    Uiso  ? Al
   Hf1        1.0     0.553323     0.205820     0.117714    Uiso  ? Hf
   Hf2        1.0     0.778960     0.762234     0.896550    Uiso  ? Hf
   Hf3        1.0     0.222787     0.870420     0.624625    Uiso  ? Hf
   Mg1        1.0     0.112922     0.433052     0.890310    Uiso  ? Mg
   Mg2        1.0     0.226788     0.864222     0.145046    Uiso  ? Mg
   Mg3        1.0     0.886402     0.871689     0.635652    Uiso  ? Mg
   N1         1.0     0.219846     0.205588     0.385158    Uiso  ? N
   N2         1.0     0.102020     0.107876     0.145618    Uiso  ? N
   N3         1.0     0.889045     0.201635     0.893995    Uiso  ? N
   N4         1.0     0.765195     0.118940     0.640330    Uiso  ? N
   N5         1.0     0.555992     0.204639     0.364974    Uiso  ? N
   N6         1.0     0.437968     0.076267     0.092579    Uiso  ? N
   N7         1.0     0.225428     0.194286     0.873691    Uiso  ? N
   N8         1.0     0.093082     0.119580     0.644893    Uiso  ? N
   N9         1.0     0.890701     0.202775     0.391913    Uiso  ? N
   N10        1.0     0.796903     0.086714     0.147893    Uiso  ? N
   N11        1.0     0.558173     0.204412     0.896350    Uiso  ? N
   N12        1.0     0.448882     0.090181     0.592829    Uiso  ? N
   N13        1.0     0.222622     0.537395     0.337992    Uiso  ? N
   N14        1.0     0.111387     0.427973     0.099879    Uiso  ? N
   N15        1.0     0.879609     0.531676     0.831262    Uiso  ? N
   N16        1.0     0.773338     0.434948     0.586303    Uiso  ? N
   N17        1.0     0.556058     0.539778     0.336753    Uiso  ? N
   N18        1.0     0.432929     0.452327     0.091580    Uiso  ? N
   N19        1.0     0.231275     0.549475     0.834585    Uiso  ? N
   N20        1.0     0.108803     0.434904     0.594340    Uiso  ? N
   N21        1.0     0.889739     0.537164     0.343392    Uiso  ? N
   N22        1.0     0.776777     0.430703     0.092611    Uiso  ? N
   N23        1.0     0.557351     0.536869     0.838211    Uiso  ? N
   N24        1.0     0.443151     0.432206     0.584563    Uiso  ? N
   N25        1.0     0.222997     0.873896     0.371773    Uiso  ? N
   N26        1.0     0.104710     0.752523     0.088274    Uiso  ? N
   N27        1.0     0.897279     0.880609     0.845397    Uiso  ? N
   N28        1.0     0.771362     0.752940     0.589366    Uiso  ? N
   N29        1.0     0.556411     0.870132     0.342288    Uiso  ? N
   N30        1.0     0.461607     0.752378     0.084737    Uiso  ? N
   N31        1.0     0.225024     0.869343     0.841045    Uiso  ? N
   N32        1.0     0.117034     0.741303     0.581184    Uiso  ? N
   N33        1.0     0.892190     0.863801     0.348094    Uiso  ? N
   N34        1.0     0.778431     0.759180     0.104191    Uiso  ? N
   N35        1.0     0.542133     0.877623     0.832507    Uiso  ? N
   N36        1.0     0.465939     0.747422     0.586357    Uiso  ? N
