
#======================================================================
# CRYSTAL DATA
#----------------------------------------------------------------------
data_VESTA_phase_1

_chemical_name_common                  'Al   Hf   Mg   N                      '
_cell_length_a                         9.604186
_cell_length_b                         9.621305
_cell_length_c                         10.209620
_cell_angle_alpha                      89.988052
_cell_angle_beta                       89.639488
_cell_angle_gamma                      60.063183
_cell_volume                           817.522712
_space_group_name_H-M_alt              'P 1'
_space_group_IT_number                 1

loop_
_space_group_symop_operation_xyz
   'x, y, z'

loop_
   _atom_site_label
   _atom_site_occupancy
   _atom_site_fract_x
   _atom_site_fract_y
   _atom_site_fract_z
   _atom_site_adp_type
   _atom_site_U_iso_or_equiv
   _atom_site_type_symbol
   Al1        1.0     0.113854     0.095494     0.394875    Uiso  ? Al
   Al2        1.0     0.214379     0.207754     0.152572    Uiso  ? Al
   Al3        1.0     0.776917     0.105211     0.828150    Uiso  ? Al
   Al4        1.0     0.878761     0.213156     0.578626    Uiso  ? Al
   Al5        1.0     0.441630     0.092205     0.394940    Uiso  ? Al
   Al6        1.0     0.118416     0.094029     0.903636    Uiso  ? Al
   Al7        1.0     0.220259     0.211080     0.649042    Uiso  ? Al
   Al8        1.0     0.784287     0.094389     0.333972    Uiso  ? Al
   Al9        1.0     0.892143     0.204240     0.081892    Uiso  ? Al
   Al10       1.0     0.435232     0.092733     0.896870    Uiso  ? Al
   Al11       1.0     0.552575     0.208867     0.604593    Uiso  ? Al
   Al12       1.0     0.112122     0.427328     0.397687    Uiso  ? Al
   Al13       1.0     0.215483     0.542307     0.150772    Uiso  ? Al
   Al14       1.0     0.774076     0.430269     0.897283    Uiso  ? Al
   Al15       1.0     0.887718     0.535427     0.643461    Uiso  ? Al
   Al16       1.0     0.440977     0.433558     0.394285    Uiso  ? Al
   Al17       1.0     0.557139     0.545104     0.148465    Uiso  ? Al
   Al18       1.0     0.222750     0.534721     0.649060    Uiso  ? Al
   Al19       1.0     0.772158     0.435968     0.395919    Uiso  ? Al
   Al20       1.0     0.893772     0.532059     0.154713    Uiso  ? Al
   Al21       1.0     0.438748     0.438458     0.896862    Uiso  ? Al
   Al22       1.0     0.560556     0.533427     0.648399    Uiso  ? Al
   Al23       1.0     0.114123     0.755597     0.397780    Uiso  ? Al
   Al24       1.0     0.446541     0.758937     0.397414    Uiso  ? Al
   Al25       1.0     0.553815     0.865692     0.154210    Uiso  ? Al
   Al26       1.0     0.113956     0.759262     0.904853    Uiso  ? Al
   Al27       1.0     0.776940     0.758220     0.401891    Uiso  ? Al
   Al28       1.0     0.900684     0.857861     0.156224    Uiso  ? Al
   Al29       1.0     0.445289     0.757828     0.902713    Uiso  ? Al
   Al30       1.0     0.557081     0.871142     0.642704    Uiso  ? Al
   Hf1        1.0     0.554309     0.206044     0.116041    Uiso  ? Hf
   Hf2        1.0     0.778806     0.762818     0.895790    Uiso  ? Hf
   Hf3        1.0     0.220560     0.872812     0.643304    Uiso  ? Hf
   Mg1        1.0     0.116813     0.422613     0.898576    Uiso  ? Mg
   Mg2        1.0     0.223176     0.871208     0.149597    Uiso  ? Mg
   Mg3        1.0     0.887327     0.869934     0.634558    Uiso  ? Mg
   N1         1.0     0.222878     0.205332     0.341008    Uiso  ? N
   N2         1.0     0.111550     0.104226     0.090566    Uiso  ? N
   N3         1.0     0.888142     0.204430     0.888381    Uiso  ? N
   N4         1.0     0.766031     0.116752     0.640232    Uiso  ? N
   N5         1.0     0.552088     0.207029     0.346935    Uiso  ? N
   N6         1.0     0.433464     0.079842     0.089268    Uiso  ? N
   N7         1.0     0.229051     0.191268     0.831731    Uiso  ? N
   N8         1.0     0.105146     0.111711     0.586809    Uiso  ? N
   N9         1.0     0.885066     0.206648     0.385824    Uiso  ? N
   N10        1.0     0.799608     0.085150     0.143819    Uiso  ? N
   N11        1.0     0.555972     0.204413     0.888309    Uiso  ? N
   N12        1.0     0.443597     0.093375     0.585136    Uiso  ? N
   N13        1.0     0.223414     0.537242     0.338998    Uiso  ? N
   N14        1.0     0.113224     0.425734     0.103488    Uiso  ? N
   N15        1.0     0.882752     0.531027     0.830082    Uiso  ? N
   N16        1.0     0.772046     0.435864     0.585370    Uiso  ? N
   N17        1.0     0.554276     0.540479     0.337059    Uiso  ? N
   N18        1.0     0.433170     0.452657     0.088322    Uiso  ? N
   N19        1.0     0.228992     0.547495     0.833516    Uiso  ? N
   N20        1.0     0.111757     0.427305     0.588195    Uiso  ? N
   N21        1.0     0.889138     0.537887     0.342343    Uiso  ? N
   N22        1.0     0.775295     0.433231     0.091188    Uiso  ? N
   N23        1.0     0.556261     0.538187     0.836591    Uiso  ? N
   N24        1.0     0.443188     0.430520     0.584813    Uiso  ? N
   N25        1.0     0.223125     0.872231     0.360308    Uiso  ? N
   N26        1.0     0.105917     0.751520     0.089548    Uiso  ? N
   N27        1.0     0.899382     0.879173     0.843955    Uiso  ? N
   N28        1.0     0.770253     0.752593     0.588150    Uiso  ? N
   N29        1.0     0.555213     0.871331     0.341445    Uiso  ? N
   N30        1.0     0.461438     0.753085     0.085909    Uiso  ? N
   N31        1.0     0.224236     0.871068     0.850893    Uiso  ? N
   N32        1.0     0.119817     0.742779     0.581206    Uiso  ? N
   N33        1.0     0.891831     0.864996     0.347685    Uiso  ? N
   N34        1.0     0.778178     0.760268     0.102851    Uiso  ? N
   N35        1.0     0.541219     0.878509     0.831416    Uiso  ? N
   N36        1.0     0.459700     0.750898     0.586180    Uiso  ? N
