
#======================================================================
# CRYSTAL DATA
#----------------------------------------------------------------------
data_VESTA_phase_1

_chemical_name_common                  'Al   Hf   Mg   N                      '
_cell_length_a                         9.639265
_cell_length_b                         9.616838
_cell_length_c                         10.318532
_cell_angle_alpha                      89.912376
_cell_angle_beta                       89.880692
_cell_angle_gamma                      59.880695
_cell_volume                           827.371154
_space_group_name_H-M_alt              'P 1'
_space_group_IT_number                 1

loop_
_space_group_symop_operation_xyz
   'x, y, z'

loop_
   _atom_site_label
   _atom_site_occupancy
   _atom_site_fract_x
   _atom_site_fract_y
   _atom_site_fract_z
   _atom_site_adp_type
   _atom_site_U_iso_or_equiv
   _atom_site_type_symbol
   Al1        1.0     0.107834     0.100249     0.334841    Uiso  ? Al
   Al2        1.0     0.217948     0.200781     0.085448    Uiso  ? Al
   Al3        1.0     0.776656     0.105520     0.824523    Uiso  ? Al
   Al4        1.0     0.880920     0.216545     0.581440    Uiso  ? Al
   Al5        1.0     0.440482     0.092665     0.341048    Uiso  ? Al
   Al6        1.0     0.106762     0.104489     0.838033    Uiso  ? Al
   Al7        1.0     0.216802     0.216761     0.580757    Uiso  ? Al
   Al8        1.0     0.783175     0.093299     0.341063    Uiso  ? Al
   Al9        1.0     0.894909     0.206533     0.084564    Uiso  ? Al
   Al10       1.0     0.433413     0.102944     0.825303    Uiso  ? Al
   Al11       1.0     0.556990     0.202876     0.579260    Uiso  ? Al
   Al12       1.0     0.116833     0.421544     0.340227    Uiso  ? Al
   Al13       1.0     0.220555     0.543650     0.148894    Uiso  ? Al
   Al14       1.0     0.777039     0.420997     0.830780    Uiso  ? Al
   Al15       1.0     0.890161     0.539289     0.646928    Uiso  ? Al
   Al16       1.0     0.439973     0.435421     0.400207    Uiso  ? Al
   Al17       1.0     0.552349     0.544914     0.149078    Uiso  ? Al
   Al18       1.0     0.225841     0.535569     0.651235    Uiso  ? Al
   Al19       1.0     0.778960     0.421012     0.334869    Uiso  ? Al
   Al20       1.0     0.891061     0.536793     0.154423    Uiso  ? Al
   Al21       1.0     0.437418     0.442748     0.896557    Uiso  ? Al
   Al22       1.0     0.553593     0.534381     0.648797    Uiso  ? Al
   Al23       1.0     0.113562     0.754105     0.400799    Uiso  ? Al
   Al24       1.0     0.449489     0.755734     0.401390    Uiso  ? Al
   Al25       1.0     0.557325     0.858889     0.161474    Uiso  ? Al
   Al26       1.0     0.112735     0.763841     0.902821    Uiso  ? Al
   Al27       1.0     0.780127     0.753775     0.406614    Uiso  ? Al
   Al28       1.0     0.901133     0.859856     0.160306    Uiso  ? Al
   Al29       1.0     0.441572     0.762012     0.901365    Uiso  ? Al
   Al30       1.0     0.559865     0.865971     0.644255    Uiso  ? Al
   Hf1        1.0     0.559258     0.197842     0.093414    Uiso  ? Hf
   Hf2        1.0     0.774593     0.767599     0.901518    Uiso  ? Hf
   Hf3        1.0     0.221373     0.872176     0.631417    Uiso  ? Hf
   Mg1        1.0     0.119434     0.421389     0.851771    Uiso  ? Mg
   Mg2        1.0     0.225544     0.866745     0.147418    Uiso  ? Mg
   Mg3        1.0     0.887122     0.870390     0.638416    Uiso  ? Mg
   N1         1.0     0.223429     0.202848     0.395634    Uiso  ? N
   N2         1.0     0.101056     0.111303     0.151259    Uiso  ? N
   N3         1.0     0.886933     0.207296     0.896909    Uiso  ? N
   N4         1.0     0.765597     0.118613     0.640781    Uiso  ? N
   N5         1.0     0.558317     0.199348     0.384095    Uiso  ? N
   N6         1.0     0.433536     0.087912     0.152217    Uiso  ? N
   N7         1.0     0.232345     0.186689     0.902358    Uiso  ? N
   N8         1.0     0.095605     0.123031     0.646762    Uiso  ? N
   N9         1.0     0.888500     0.205354     0.396700    Uiso  ? N
   N10        1.0     0.795417     0.089872     0.151353    Uiso  ? N
   N11        1.0     0.555967     0.200515     0.888360    Uiso  ? N
   N12        1.0     0.439661     0.101194     0.636255    Uiso  ? N
   N13        1.0     0.228166     0.538998     0.336369    Uiso  ? N
   N14        1.0     0.117204     0.420526     0.138634    Uiso  ? N
   N15        1.0     0.880280     0.537970     0.841819    Uiso  ? N
   N16        1.0     0.776730     0.426622     0.638493    Uiso  ? N
   N17        1.0     0.549186     0.540395     0.338712    Uiso  ? N
   N18        1.0     0.435973     0.447252     0.087230    Uiso  ? N
   N19        1.0     0.230628     0.552141     0.836233    Uiso  ? N
   N20        1.0     0.111957     0.429849     0.625663    Uiso  ? N
   N21        1.0     0.889215     0.538108     0.345356    Uiso  ? N
   N22        1.0     0.778594     0.422561     0.141706    Uiso  ? N
   N23        1.0     0.549648     0.542283     0.838230    Uiso  ? N
   N24        1.0     0.441608     0.432310     0.586305    Uiso  ? N
   N25        1.0     0.222475     0.873912     0.371801    Uiso  ? N
   N26        1.0     0.104485     0.753424     0.087591    Uiso  ? N
   N27        1.0     0.896970     0.881271     0.845905    Uiso  ? N
   N28        1.0     0.770864     0.753559     0.589500    Uiso  ? N
   N29        1.0     0.560470     0.861975     0.347382    Uiso  ? N
   N30        1.0     0.461124     0.754012     0.084853    Uiso  ? N
   N31        1.0     0.222723     0.872188     0.842966    Uiso  ? N
   N32        1.0     0.116914     0.742708     0.581718    Uiso  ? N
   N33        1.0     0.893441     0.862321     0.348441    Uiso  ? N
   N34        1.0     0.777004     0.763219     0.106352    Uiso  ? N
   N35        1.0     0.541685     0.874578     0.832025    Uiso  ? N
   N36        1.0     0.463236     0.748486     0.586242    Uiso  ? N
