
#======================================================================
# CRYSTAL DATA
#----------------------------------------------------------------------
data_VESTA_phase_1

_chemical_name_common                  'Al   Hf   Mg   N                      '
_cell_length_a                         9.624718
_cell_length_b                         9.659690
_cell_length_c                         10.223325
_cell_angle_alpha                      90.441086
_cell_angle_beta                       90.216087
_cell_angle_gamma                      60.015743
_cell_volume                           823.246662
_space_group_name_H-M_alt              'P 1'
_space_group_IT_number                 1

loop_
_space_group_symop_operation_xyz
   'x, y, z'

loop_
   _atom_site_label
   _atom_site_occupancy
   _atom_site_fract_x
   _atom_site_fract_y
   _atom_site_fract_z
   _atom_site_adp_type
   _atom_site_U_iso_or_equiv
   _atom_site_type_symbol
   Al1        1.0     0.107892     0.100346     0.329003    Uiso  ? Al
   Al2        1.0     0.215828     0.201815     0.078881    Uiso  ? Al
   Al3        1.0     0.776800     0.105784     0.818531    Uiso  ? Al
   Al4        1.0     0.882846     0.217696     0.577720    Uiso  ? Al
   Al5        1.0     0.438234     0.096684     0.336013    Uiso  ? Al
   Al6        1.0     0.107280     0.103410     0.834818    Uiso  ? Al
   Al7        1.0     0.216461     0.216528     0.575585    Uiso  ? Al
   Al8        1.0     0.782113     0.097185     0.334955    Uiso  ? Al
   Al9        1.0     0.894346     0.205613     0.078882    Uiso  ? Al
   Al10       1.0     0.434274     0.099311     0.819886    Uiso  ? Al
   Al11       1.0     0.555994     0.206876     0.574166    Uiso  ? Al
   Al12       1.0     0.111196     0.422583     0.328332    Uiso  ? Al
   Al13       1.0     0.218432     0.542127     0.142136    Uiso  ? Al
   Al14       1.0     0.782274     0.422897     0.829697    Uiso  ? Al
   Al15       1.0     0.893629     0.533575     0.574226    Uiso  ? Al
   Al16       1.0     0.439438     0.435942     0.394265    Uiso  ? Al
   Al17       1.0     0.553329     0.541191     0.144984    Uiso  ? Al
   Al18       1.0     0.224747     0.536564     0.645820    Uiso  ? Al
   Al19       1.0     0.783055     0.422396     0.327510    Uiso  ? Al
   Al20       1.0     0.889918     0.530109     0.083094    Uiso  ? Al
   Al21       1.0     0.436609     0.443432     0.888918    Uiso  ? Al
   Al22       1.0     0.558036     0.534517     0.645222    Uiso  ? Al
   Al23       1.0     0.116393     0.753524     0.392780    Uiso  ? Al
   Al24       1.0     0.447247     0.753643     0.392372    Uiso  ? Al
   Al25       1.0     0.554005     0.861967     0.141719    Uiso  ? Al
   Al26       1.0     0.110740     0.764522     0.897681    Uiso  ? Al
   Al27       1.0     0.784059     0.751546     0.334706    Uiso  ? Al
   Al28       1.0     0.900584     0.862468     0.147425    Uiso  ? Al
   Al29       1.0     0.442817     0.761810     0.900097    Uiso  ? Al
   Al30       1.0     0.559861     0.872351     0.594283    Uiso  ? Al
   Hf1        1.0     0.557854     0.196721     0.083816    Uiso  ? Hf
   Hf2        1.0     0.777265     0.760124     0.835541    Uiso  ? Hf
   Hf3        1.0     0.225024     0.869654     0.629473    Uiso  ? Hf
   Mg1        1.0     0.112564     0.421879     0.835725    Uiso  ? Mg
   Mg2        1.0     0.223543     0.866448     0.142109    Uiso  ? Mg
   Mg3        1.0     0.886779     0.877975     0.611386    Uiso  ? Mg
   N1         1.0     0.220867     0.206115     0.389175    Uiso  ? N
   N2         1.0     0.101455     0.109499     0.143694    Uiso  ? N
   N3         1.0     0.886592     0.207860     0.890376    Uiso  ? N
   N4         1.0     0.765871     0.120896     0.632742    Uiso  ? N
   N5         1.0     0.557232     0.202220     0.377543    Uiso  ? N
   N6         1.0     0.432593     0.086720     0.147339    Uiso  ? N
   N7         1.0     0.230012     0.191298     0.894667    Uiso  ? N
   N8         1.0     0.098766     0.119318     0.640730    Uiso  ? N
   N9         1.0     0.888763     0.208054     0.391024    Uiso  ? N
   N10        1.0     0.793762     0.090458     0.143800    Uiso  ? N
   N11        1.0     0.553437     0.204921     0.877807    Uiso  ? N
   N12        1.0     0.441747     0.099123     0.627302    Uiso  ? N
   N13        1.0     0.226484     0.538370     0.330893    Uiso  ? N
   N14        1.0     0.110612     0.420871     0.137098    Uiso  ? N
   N15        1.0     0.881670     0.528039     0.900584    Uiso  ? N
   N16        1.0     0.784284     0.428684     0.638158    Uiso  ? N
   N17        1.0     0.551389     0.538583     0.334496    Uiso  ? N
   N18        1.0     0.435521     0.444343     0.082155    Uiso  ? N
   N19        1.0     0.227518     0.553178     0.831532    Uiso  ? N
   N20        1.0     0.109895     0.428889     0.625438    Uiso  ? N
   N21        1.0     0.890269     0.534231     0.385036    Uiso  ? N
   N22        1.0     0.781300     0.421178     0.139723    Uiso  ? N
   N23        1.0     0.551785     0.542686     0.834553    Uiso  ? N
   N24        1.0     0.442269     0.433733     0.582473    Uiso  ? N
   N25        1.0     0.222342     0.874640     0.363750    Uiso  ? N
   N26        1.0     0.105489     0.750924     0.083032    Uiso  ? N
   N27        1.0     0.895840     0.886885     0.845728    Uiso  ? N
   N28        1.0     0.775377     0.749499     0.627545    Uiso  ? N
   N29        1.0     0.557538     0.869437     0.361822    Uiso  ? N
   N30        1.0     0.458273     0.749627     0.085808    Uiso  ? N
   N31        1.0     0.223113     0.871729     0.840682    Uiso  ? N
   N32        1.0     0.120167     0.741287     0.575221    Uiso  ? N
   N33        1.0     0.894907     0.868125     0.346203    Uiso  ? N
   N34        1.0     0.779852     0.754386     0.137804    Uiso  ? N
   N35        1.0     0.535983     0.882587     0.851501    Uiso  ? N
   N36        1.0     0.465335     0.745340     0.579053    Uiso  ? N
