
#======================================================================
# CRYSTAL DATA
#----------------------------------------------------------------------
data_VESTA_phase_1

_chemical_name_common                  'Al   Hf   Mg   N                      '
_cell_length_a                         9.617836
_cell_length_b                         9.635332
_cell_length_c                         10.225246
_cell_angle_alpha                      89.960793
_cell_angle_beta                       89.782784
_cell_angle_gamma                      60.086945
_cell_volume                           821.343365
_space_group_name_H-M_alt              'P 1'
_space_group_IT_number                 1

loop_
_space_group_symop_operation_xyz
   'x, y, z'

loop_
   _atom_site_label
   _atom_site_occupancy
   _atom_site_fract_x
   _atom_site_fract_y
   _atom_site_fract_z
   _atom_site_adp_type
   _atom_site_U_iso_or_equiv
   _atom_site_type_symbol
   Al1        1.0     0.107325     0.102557     0.332627    Uiso  ? Al
   Al2        1.0     0.215410     0.202034     0.085277    Uiso  ? Al
   Al3        1.0     0.774604     0.105650     0.827538    Uiso  ? Al
   Al4        1.0     0.883606     0.211423     0.582391    Uiso  ? Al
   Al5        1.0     0.443780     0.088341     0.379893    Uiso  ? Al
   Al6        1.0     0.104885     0.102988     0.835801    Uiso  ? Al
   Al7        1.0     0.217612     0.210917     0.581541    Uiso  ? Al
   Al8        1.0     0.787741     0.092612     0.338247    Uiso  ? Al
   Al9        1.0     0.897679     0.199350     0.083955    Uiso  ? Al
   Al10       1.0     0.438433     0.096823     0.864305    Uiso  ? Al
   Al11       1.0     0.558979     0.206021     0.577647    Uiso  ? Al
   Al12       1.0     0.108840     0.434118     0.395680    Uiso  ? Al
   Al13       1.0     0.214581     0.542364     0.148879    Uiso  ? Al
   Al14       1.0     0.773514     0.429849     0.900702    Uiso  ? Al
   Al15       1.0     0.887231     0.535794     0.644918    Uiso  ? Al
   Al16       1.0     0.439788     0.438183     0.395640    Uiso  ? Al
   Al17       1.0     0.558117     0.544337     0.147484    Uiso  ? Al
   Al18       1.0     0.224728     0.533794     0.649599    Uiso  ? Al
   Al19       1.0     0.774092     0.433497     0.398616    Uiso  ? Al
   Al20       1.0     0.894722     0.529555     0.155340    Uiso  ? Al
   Al21       1.0     0.437546     0.440762     0.897979    Uiso  ? Al
   Al22       1.0     0.562250     0.530303     0.649874    Uiso  ? Al
   Al23       1.0     0.113226     0.755286     0.398494    Uiso  ? Al
   Al24       1.0     0.450587     0.755546     0.399228    Uiso  ? Al
   Al25       1.0     0.555995     0.863058     0.158238    Uiso  ? Al
   Al26       1.0     0.113368     0.762163     0.901208    Uiso  ? Al
   Al27       1.0     0.779489     0.755662     0.403895    Uiso  ? Al
   Al28       1.0     0.900307     0.858333     0.156830    Uiso  ? Al
   Al29       1.0     0.441180     0.761070     0.899649    Uiso  ? Al
   Al30       1.0     0.559921     0.868225     0.641194    Uiso  ? Al
   Hf1        1.0     0.555281     0.204351     0.110127    Uiso  ? Hf
   Hf2        1.0     0.777173     0.762635     0.898029    Uiso  ? Hf
   Hf3        1.0     0.222899     0.870643     0.627103    Uiso  ? Hf
   Mg1        1.0     0.112498     0.431087     0.894148    Uiso  ? Mg
   Mg2        1.0     0.226758     0.865777     0.145443    Uiso  ? Mg
   Mg3        1.0     0.886725     0.870855     0.636935    Uiso  ? Mg
   N1         1.0     0.219275     0.204935     0.392086    Uiso  ? N
   N2         1.0     0.101263     0.110008     0.149578    Uiso  ? N
   N3         1.0     0.889549     0.200901     0.894945    Uiso  ? N
   N4         1.0     0.764951     0.119039     0.641784    Uiso  ? N
   N5         1.0     0.559220     0.204483     0.371711    Uiso  ? N
   N6         1.0     0.435660     0.082579     0.126737    Uiso  ? N
   N7         1.0     0.225729     0.188841     0.896203    Uiso  ? N
   N8         1.0     0.095134     0.122241     0.646495    Uiso  ? N
   N9         1.0     0.891511     0.201916     0.394537    Uiso  ? N
   N10        1.0     0.797960     0.086471     0.149144    Uiso  ? N
   N11        1.0     0.556308     0.203156     0.894168    Uiso  ? N
   N12        1.0     0.446671     0.091850     0.598992    Uiso  ? N
   N13        1.0     0.224052     0.538365     0.337000    Uiso  ? N
   N14        1.0     0.111111     0.428112     0.103533    Uiso  ? N
   N15        1.0     0.880136     0.531260     0.831106    Uiso  ? N
   N16        1.0     0.772837     0.435190     0.586511    Uiso  ? N
   N17        1.0     0.556396     0.539071     0.335942    Uiso  ? N
   N18        1.0     0.432409     0.452914     0.089585    Uiso  ? N
   N19        1.0     0.229478     0.548172     0.833593    Uiso  ? N
   N20        1.0     0.107480     0.435708     0.589644    Uiso  ? N
   N21        1.0     0.888578     0.536972     0.342274    Uiso  ? N
   N22        1.0     0.775980     0.431174     0.091639    Uiso  ? N
   N23        1.0     0.556871     0.537248     0.838084    Uiso  ? N
   N24        1.0     0.442685     0.432418     0.584698    Uiso  ? N
   N25        1.0     0.223547     0.874235     0.372323    Uiso  ? N
   N26        1.0     0.105024     0.753054     0.087339    Uiso  ? N
   N27        1.0     0.896147     0.879863     0.845503    Uiso  ? N
   N28        1.0     0.772280     0.751993     0.589052    Uiso  ? N
   N29        1.0     0.559635     0.864601     0.345489    Uiso  ? N
   N30        1.0     0.461821     0.753783     0.083927    Uiso  ? N
   N31        1.0     0.223872     0.869647     0.840567    Uiso  ? N
   N32        1.0     0.117329     0.741384     0.581341    Uiso  ? N
   N33        1.0     0.893140     0.862935     0.347851    Uiso  ? N
   N34        1.0     0.778324     0.759593     0.104344    Uiso  ? N
   N35        1.0     0.541277     0.877715     0.830223    Uiso  ? N
   N36        1.0     0.465273     0.746221     0.586657    Uiso  ? N
