
#======================================================================
# CRYSTAL DATA
#----------------------------------------------------------------------
data_VESTA_phase_1

_chemical_name_common                  'Al   Hf   Mg   N '
_cell_length_a                         9.580488
_cell_length_b                         9.599001
_cell_length_c                         10.120077
_cell_angle_alpha                      90.038353
_cell_angle_beta                       89.958328
_cell_angle_gamma                      59.999641
_cell_volume                           805.983471
_space_group_name_H-M_alt              'P 1'
_space_group_IT_number                 1

loop_
_space_group_symop_operation_xyz
   'x, y, z'

loop_
   _atom_site_label
   _atom_site_occupancy
   _atom_site_fract_x
   _atom_site_fract_y
   _atom_site_fract_z
   _atom_site_adp_type
   _atom_site_U_iso_or_equiv
   _atom_site_type_symbol
   Al1        1.0     0.107565     0.100129     0.408684    Uiso  ? Al
   Al2        1.0     0.214759     0.208197     0.163468    Uiso  ? Al
   Al3        1.0     0.785659     0.094503     0.907808    Uiso  ? Al
   Al4        1.0     0.881387     0.214478     0.661229    Uiso  ? Al
   Al5        1.0     0.442125     0.093418     0.415517    Uiso  ? Al
   Al6        1.0     0.110033     0.098641     0.915354    Uiso  ? Al
   Al7        1.0     0.219880     0.210826     0.661395    Uiso  ? Al
   Al8        1.0     0.779388     0.096795     0.416304    Uiso  ? Al
   Al9        1.0     0.893670     0.208039     0.161383    Uiso  ? Al
   Al10       1.0     0.435357     0.093621     0.905336    Uiso  ? Al
   Al11       1.0     0.555845     0.206538     0.662984    Uiso  ? Al
   Al12       1.0     0.112694     0.427258     0.410360    Uiso  ? Al
   Al13       1.0     0.215948     0.542520     0.163721    Uiso  ? Al
   Al14       1.0     0.777559     0.423951     0.912025    Uiso  ? Al
   Al15       1.0     0.888700     0.534244     0.655422    Uiso  ? Al
   Al16       1.0     0.442699     0.430986     0.416487    Uiso  ? Al
   Al17       1.0     0.557630     0.542890     0.161356    Uiso  ? Al
   Al18       1.0     0.222640     0.534917     0.662733    Uiso  ? Al
   Al19       1.0     0.776865     0.427213     0.411597    Uiso  ? Al
   Al20       1.0     0.892906     0.533730     0.168056    Uiso  ? Al
   Al21       1.0     0.440369     0.435858     0.905699    Uiso  ? Al
   Al22       1.0     0.561536     0.532869     0.661926    Uiso  ? Al
   Al23       1.0     0.112630     0.757200     0.409219    Uiso  ? Al
   Al24       1.0     0.447940     0.757890     0.409492    Uiso  ? Al
   Al25       1.0     0.553823     0.867310     0.166704    Uiso  ? Al
   Al26       1.0     0.115592     0.758270     0.918591    Uiso  ? Al
   Al27       1.0     0.777397     0.759558     0.414772    Uiso  ? Al
   Al28       1.0     0.895668     0.867928     0.167199    Uiso  ? Al
   Al29       1.0     0.444057     0.757959     0.915823    Uiso  ? Al
   Al30       1.0     0.557359     0.870724     0.656086    Uiso  ? Al
   Hf1        1.0     0.553648     0.206625     0.152322    Uiso  ? Hf
   Hf2        1.0     0.779308     0.759406     0.907563    Uiso  ? Hf
   Hf3        1.0     0.220501     0.873580     0.652680    Uiso  ? Hf
   Mg1        1.0     0.116963     0.422244     0.911803    Uiso  ? Mg
   Mg2        1.0     0.222507     0.873547     0.162918    Uiso  ? Mg
   Mg3        1.0     0.886068     0.874408     0.653394    Uiso  ? Mg
   N1         1.0     0.224227     0.204427     0.354240    Uiso  ? N
   N2         1.0     0.103859     0.109296     0.101305    Uiso  ? N
   N3         1.0     0.889111     0.206768     0.851452    Uiso  ? N
   N4         1.0     0.769424     0.111936     0.601753    Uiso  ? N
   N5         1.0     0.553912     0.206074     0.358831    Uiso  ? N
   N6         1.0     0.435802     0.083759     0.097843    Uiso  ? N
   N7         1.0     0.226313     0.191442     0.845467    Uiso  ? N
   N8         1.0     0.097855     0.116198     0.597747    Uiso  ? N
   N9         1.0     0.886916     0.207250     0.350610    Uiso  ? N
   N10        1.0     0.794601     0.086884     0.100406    Uiso  ? N
   N11        1.0     0.555528     0.204223     0.861823    Uiso  ? N
   N12        1.0     0.444645     0.094263     0.604210    Uiso  ? N
   N13        1.0     0.225563     0.536462     0.353471    Uiso  ? N
   N14        1.0     0.112256     0.427064     0.117431    Uiso  ? N
   N15        1.0     0.883562     0.527813     0.843797    Uiso  ? N
   N16        1.0     0.776120     0.427791     0.599643    Uiso  ? N
   N17        1.0     0.555545     0.537157     0.352056    Uiso  ? N
   N18        1.0     0.436046     0.445925     0.097622    Uiso  ? N
   N19        1.0     0.227585     0.547657     0.848373    Uiso  ? N
   N20        1.0     0.112091     0.427283     0.601423    Uiso  ? N
   N21        1.0     0.888165     0.537950     0.357135    Uiso  ? N
   N22        1.0     0.777716     0.427851     0.103598    Uiso  ? N
   N23        1.0     0.557507     0.538121     0.851656    Uiso  ? N
   N24        1.0     0.445235     0.426526     0.605810    Uiso  ? N
   N25        1.0     0.222421     0.874292     0.375816    Uiso  ? N
   N26        1.0     0.105142     0.753575     0.105253    Uiso  ? N
   N27        1.0     0.899319     0.878622     0.858042    Uiso  ? N
   N28        1.0     0.771808     0.752707     0.603129    Uiso  ? N
   N29        1.0     0.554676     0.873500     0.355419    Uiso  ? N
   N30        1.0     0.460550     0.753208     0.101123    Uiso  ? N
   N31        1.0     0.222199     0.872610     0.863102    Uiso  ? N
   N32        1.0     0.118170     0.743266     0.594344    Uiso  ? N
   N33        1.0     0.887164     0.874246     0.357692    Uiso  ? N
   N34        1.0     0.777731     0.761201     0.115946    Uiso  ? N
   N35        1.0     0.540759     0.877052     0.845721    Uiso  ? N
   N36        1.0     0.461495     0.749310     0.599155    Uiso  ? N
