
#======================================================================
# CRYSTAL DATA
#----------------------------------------------------------------------
data_VESTA_phase_1

_chemical_name_common                  'Al   Hf   Mg   N '
_cell_length_a                         9.584488
_cell_length_b                         9.595096
_cell_length_c                         10.336264
_cell_angle_alpha                      90.079124
_cell_angle_beta                       89.960625
_cell_angle_gamma                      59.970047
_cell_volume                           822.962995
_space_group_name_H-M_alt              'P 1'
_space_group_IT_number                 1

loop_
_space_group_symop_operation_xyz
   'x, y, z'

loop_
   _atom_site_label
   _atom_site_occupancy
   _atom_site_fract_x
   _atom_site_fract_y
   _atom_site_fract_z
   _atom_site_adp_type
   _atom_site_U_iso_or_equiv
   _atom_site_type_symbol
   Al1        1.0     0.107394     0.102143     0.334144    Uiso  ? Al
   Al2        1.0     0.218274     0.200071     0.084192    Uiso  ? Al
   Al3        1.0     0.776733     0.105763     0.824773    Uiso  ? Al
   Al4        1.0     0.883644     0.211440     0.581803    Uiso  ? Al
   Al5        1.0     0.438378     0.095067     0.339127    Uiso  ? Al
   Al6        1.0     0.106840     0.103575     0.837149    Uiso  ? Al
   Al7        1.0     0.220426     0.209887     0.581983    Uiso  ? Al
   Al8        1.0     0.783185     0.094485     0.339231    Uiso  ? Al
   Al9        1.0     0.898145     0.200105     0.085014    Uiso  ? Al
   Al10       1.0     0.434390     0.102646     0.825368    Uiso  ? Al
   Al11       1.0     0.556552     0.204513     0.578304    Uiso  ? Al
   Al12       1.0     0.109278     0.433720     0.398015    Uiso  ? Al
   Al13       1.0     0.215800     0.540699     0.149478    Uiso  ? Al
   Al14       1.0     0.774157     0.430142     0.901211    Uiso  ? Al
   Al15       1.0     0.887092     0.536352     0.645137    Uiso  ? Al
   Al16       1.0     0.440625     0.435757     0.398174    Uiso  ? Al
   Al17       1.0     0.558232     0.543056     0.148186    Uiso  ? Al
   Al18       1.0     0.223801     0.534635     0.649482    Uiso  ? Al
   Al19       1.0     0.773791     0.433780     0.399273    Uiso  ? Al
   Al20       1.0     0.895701     0.529022     0.156342    Uiso  ? Al
   Al21       1.0     0.436932     0.442280     0.894597    Uiso  ? Al
   Al22       1.0     0.562143     0.530429     0.650057    Uiso  ? Al
   Al23       1.0     0.113167     0.755282     0.398901    Uiso  ? Al
   Al24       1.0     0.449698     0.756172     0.400056    Uiso  ? Al
   Al25       1.0     0.557792     0.859214     0.159632    Uiso  ? Al
   Al26       1.0     0.113036     0.762317     0.901960    Uiso  ? Al
   Al27       1.0     0.778416     0.756865     0.403808    Uiso  ? Al
   Al28       1.0     0.900474     0.859029     0.158578    Uiso  ? Al
   Al29       1.0     0.441938     0.762010     0.900586    Uiso  ? Al
   Al30       1.0     0.560984     0.865558     0.643601    Uiso  ? Al
   Hf1        1.0     0.557738     0.199867     0.092148    Uiso  ? Hf
   Hf2        1.0     0.778027     0.762036     0.899722    Uiso  ? Hf
   Hf3        1.0     0.222040     0.870840     0.630225    Uiso  ? Hf
   Mg1        1.0     0.114067     0.428845     0.895498    Uiso  ? Mg
   Mg2        1.0     0.226241     0.865490     0.148059    Uiso  ? Mg
   Mg3        1.0     0.886229     0.870970     0.637927    Uiso  ? Mg
   N1         1.0     0.223866     0.201254     0.396982    Uiso  ? N
   N2         1.0     0.101946     0.111435     0.152192    Uiso  ? N
   N3         1.0     0.891046     0.199905     0.897332    Uiso  ? N
   N4         1.0     0.764853     0.120031     0.642374    Uiso  ? N
   N5         1.0     0.558187     0.199927     0.384304    Uiso  ? N
   N6         1.0     0.432822     0.089086     0.151692    Uiso  ? N
   N7         1.0     0.233984     0.183192     0.899937    Uiso  ? N
   N8         1.0     0.095248     0.123719     0.648660    Uiso  ? N
   N9         1.0     0.891205     0.201221     0.395711    Uiso  ? N
   N10        1.0     0.794349     0.090357     0.151225    Uiso  ? N
   N11        1.0     0.555802     0.201325     0.887989    Uiso  ? N
   N12        1.0     0.440325     0.101818     0.637569    Uiso  ? N
   N13        1.0     0.224918     0.536753     0.336250    Uiso  ? N
   N14        1.0     0.111452     0.427696     0.102200    Uiso  ? N
   N15        1.0     0.881484     0.530194     0.829854    Uiso  ? N
   N16        1.0     0.772284     0.436443     0.585334    Uiso  ? N
   N17        1.0     0.555878     0.537736     0.335256    Uiso  ? N
   N18        1.0     0.434635     0.449269     0.086851    Uiso  ? N
   N19        1.0     0.228089     0.548333     0.832212    Uiso  ? N
   N20        1.0     0.106763     0.436527     0.588624    Uiso  ? N
   N21        1.0     0.889316     0.536115     0.341518    Uiso  ? N
   N22        1.0     0.775808     0.432762     0.090588    Uiso  ? N
   N23        1.0     0.557464     0.537194     0.837122    Uiso  ? N
   N24        1.0     0.441638     0.434035     0.585525    Uiso  ? N
   N25        1.0     0.223162     0.873357     0.370520    Uiso  ? N
   N26        1.0     0.104949     0.752775     0.086669    Uiso  ? N
   N27        1.0     0.896113     0.879755     0.844505    Uiso  ? N
   N28        1.0     0.771531     0.753297     0.586919    Uiso  ? N
   N29        1.0     0.559382     0.863564     0.345540    Uiso  ? N
   N30        1.0     0.460607     0.754257     0.083688    Uiso  ? N
   N31        1.0     0.224097     0.868937     0.840479    Uiso  ? N
   N32        1.0     0.116231     0.742445     0.579931    Uiso  ? N
   N33        1.0     0.893023     0.862927     0.346398    Uiso  ? N
   N34        1.0     0.777542     0.761505     0.104515    Uiso  ? N
   N35        1.0     0.544451     0.873153     0.831168    Uiso  ? N
   N36        1.0     0.463986     0.747633     0.585746    Uiso  ? N
