
#======================================================================
# CRYSTAL DATA
#----------------------------------------------------------------------
data_VESTA_phase_1

_chemical_name_common                  'Al   Hf   Mg   N                      '
_cell_length_a                         9.606575
_cell_length_b                         9.617408
_cell_length_c                         10.286734
_cell_angle_alpha                      89.966316
_cell_angle_beta                       89.903557
_cell_angle_gamma                      59.982655
_cell_volume                           822.921042
_space_group_name_H-M_alt              'P 1'
_space_group_IT_number                 1

loop_
_space_group_symop_operation_xyz
   'x, y, z'

loop_
   _atom_site_label
   _atom_site_occupancy
   _atom_site_fract_x
   _atom_site_fract_y
   _atom_site_fract_z
   _atom_site_adp_type
   _atom_site_U_iso_or_equiv
   _atom_site_type_symbol
   Al1        1.0     0.107965     0.101664     0.333335    Uiso  ? Al
   Al2        1.0     0.218887     0.199359     0.084628    Uiso  ? Al
   Al3        1.0     0.776225     0.105160     0.825215    Uiso  ? Al
   Al4        1.0     0.882648     0.212943     0.581124    Uiso  ? Al
   Al5        1.0     0.438396     0.094575     0.339276    Uiso  ? Al
   Al6        1.0     0.107865     0.102835     0.837853    Uiso  ? Al
   Al7        1.0     0.220586     0.209287     0.582644    Uiso  ? Al
   Al8        1.0     0.783508     0.093988     0.338832    Uiso  ? Al
   Al9        1.0     0.895851     0.205433     0.086432    Uiso  ? Al
   Al10       1.0     0.434808     0.102575     0.826151    Uiso  ? Al
   Al11       1.0     0.556800     0.203873     0.578393    Uiso  ? Al
   Al12       1.0     0.110488     0.433392     0.398802    Uiso  ? Al
   Al13       1.0     0.216182     0.540263     0.149936    Uiso  ? Al
   Al14       1.0     0.776148     0.425841     0.871930    Uiso  ? Al
   Al15       1.0     0.888411     0.537568     0.642125    Uiso  ? Al
   Al16       1.0     0.439012     0.435982     0.398661    Uiso  ? Al
   Al17       1.0     0.557556     0.542943     0.149666    Uiso  ? Al
   Al18       1.0     0.223742     0.534287     0.650432    Uiso  ? Al
   Al19       1.0     0.775004     0.430589     0.383691    Uiso  ? Al
   Al20       1.0     0.897184     0.528876     0.158410    Uiso  ? Al
   Al21       1.0     0.436745     0.442203     0.895473    Uiso  ? Al
   Al22       1.0     0.558416     0.532234     0.646247    Uiso  ? Al
   Al23       1.0     0.112783     0.755316     0.399123    Uiso  ? Al
   Al24       1.0     0.448516     0.757414     0.400688    Uiso  ? Al
   Al25       1.0     0.558407     0.858374     0.159719    Uiso  ? Al
   Al26       1.0     0.113094     0.762239     0.902658    Uiso  ? Al
   Al27       1.0     0.778087     0.757818     0.404643    Uiso  ? Al
   Al28       1.0     0.900694     0.859240     0.158361    Uiso  ? Al
   Al29       1.0     0.441836     0.762222     0.901116    Uiso  ? Al
   Al30       1.0     0.560499     0.865865     0.644118    Uiso  ? Al
   Hf1        1.0     0.558190     0.200132     0.094104    Uiso  ? Hf
   Hf2        1.0     0.778116     0.762018     0.900227    Uiso  ? Hf
   Hf3        1.0     0.220677     0.871616     0.629743    Uiso  ? Hf
   Mg1        1.0     0.115223     0.428617     0.896720    Uiso  ? Mg
   Mg2        1.0     0.226169     0.865267     0.147044    Uiso  ? Mg
   Mg3        1.0     0.886264     0.871329     0.637953    Uiso  ? Mg
   N1         1.0     0.223836     0.201144     0.396564    Uiso  ? N
   N2         1.0     0.102633     0.109864     0.150405    Uiso  ? N
   N3         1.0     0.889629     0.202646     0.895944    Uiso  ? N
   N4         1.0     0.765155     0.119323     0.641625    Uiso  ? N
   N5         1.0     0.557966     0.200327     0.382790    Uiso  ? N
   N6         1.0     0.433770     0.087839     0.150998    Uiso  ? N
   N7         1.0     0.233970     0.183639     0.899394    Uiso  ? N
   N8         1.0     0.094944     0.123400     0.648363    Uiso  ? N
   N9         1.0     0.891189     0.201350     0.394790    Uiso  ? N
   N10        1.0     0.795513     0.089337     0.149825    Uiso  ? N
   N11        1.0     0.555756     0.201711     0.888463    Uiso  ? N
   N12        1.0     0.440665     0.101266     0.637364    Uiso  ? N
   N13        1.0     0.224370     0.537271     0.337064    Uiso  ? N
   N14        1.0     0.112715     0.426554     0.103636    Uiso  ? N
   N15        1.0     0.884966     0.531670     0.828741    Uiso  ? N
   N16        1.0     0.772853     0.434748     0.593897    Uiso  ? N
   N17        1.0     0.551155     0.540387     0.338367    Uiso  ? N
   N18        1.0     0.434615     0.449205     0.087659    Uiso  ? N
   N19        1.0     0.228161     0.548711     0.833574    Uiso  ? N
   N20        1.0     0.108490     0.435336     0.589413    Uiso  ? N
   N21        1.0     0.891106     0.538076     0.345123    Uiso  ? N
   N22        1.0     0.777819     0.428319     0.113406    Uiso  ? N
   N23        1.0     0.554299     0.539071     0.835220    Uiso  ? N
   N24        1.0     0.440639     0.432744     0.586040    Uiso  ? N
   N25        1.0     0.222071     0.874275     0.371899    Uiso  ? N
   N26        1.0     0.105360     0.751960     0.087777    Uiso  ? N
   N27        1.0     0.895965     0.880376     0.846098    Uiso  ? N
   N28        1.0     0.770813     0.754728     0.588122    Uiso  ? N
   N29        1.0     0.559292     0.863574     0.346409    Uiso  ? N
   N30        1.0     0.461141     0.753419     0.084469    Uiso  ? N
   N31        1.0     0.223674     0.869467     0.841728    Uiso  ? N
   N32        1.0     0.116175     0.741849     0.581087    Uiso  ? N
   N33        1.0     0.892748     0.863663     0.347317    Uiso  ? N
   N34        1.0     0.778394     0.760663     0.105538    Uiso  ? N
   N35        1.0     0.544484     0.873270     0.832487    Uiso  ? N
   N36        1.0     0.462437     0.749428     0.586568    Uiso  ? N
