
#======================================================================
# CRYSTAL DATA
#----------------------------------------------------------------------
data_VESTA_phase_1

_chemical_name_common                  'Al   Hf   Mg   N                      '
_cell_length_a                         9.605224
_cell_length_b                         9.648634
_cell_length_c                         10.259532
_cell_angle_alpha                      90.394539
_cell_angle_beta                       90.247780
_cell_angle_gamma                      59.994617
_cell_volume                           823.374503
_space_group_name_H-M_alt              'P 1'
_space_group_IT_number                 1

loop_
_space_group_symop_operation_xyz
   'x, y, z'

loop_
   _atom_site_label
   _atom_site_occupancy
   _atom_site_fract_x
   _atom_site_fract_y
   _atom_site_fract_z
   _atom_site_adp_type
   _atom_site_U_iso_or_equiv
   _atom_site_type_symbol
   Al1        1.0     0.108125     0.100920     0.329656    Uiso  ? Al
   Al2        1.0     0.215609     0.202188     0.079598    Uiso  ? Al
   Al3        1.0     0.777152     0.105555     0.818987    Uiso  ? Al
   Al4        1.0     0.882718     0.217623     0.577646    Uiso  ? Al
   Al5        1.0     0.440833     0.091428     0.332463    Uiso  ? Al
   Al6        1.0     0.107547     0.103461     0.833785    Uiso  ? Al
   Al7        1.0     0.218188     0.215297     0.576492    Uiso  ? Al
   Al8        1.0     0.782094     0.096708     0.334837    Uiso  ? Al
   Al9        1.0     0.894677     0.205863     0.079124    Uiso  ? Al
   Al10       1.0     0.436617     0.097206     0.824077    Uiso  ? Al
   Al11       1.0     0.555654     0.205193     0.575176    Uiso  ? Al
   Al12       1.0     0.111044     0.422966     0.329024    Uiso  ? Al
   Al13       1.0     0.218105     0.542845     0.142777    Uiso  ? Al
   Al14       1.0     0.783452     0.422367     0.829057    Uiso  ? Al
   Al15       1.0     0.892392     0.534781     0.573782    Uiso  ? Al
   Al16       1.0     0.439671     0.435190     0.394960    Uiso  ? Al
   Al17       1.0     0.552901     0.542126     0.146667    Uiso  ? Al
   Al18       1.0     0.224789     0.536505     0.645694    Uiso  ? Al
   Al19       1.0     0.783400     0.422537     0.327643    Uiso  ? Al
   Al20       1.0     0.889476     0.530775     0.083531    Uiso  ? Al
   Al21       1.0     0.437262     0.442663     0.889496    Uiso  ? Al
   Al22       1.0     0.557892     0.534412     0.644831    Uiso  ? Al
   Al23       1.0     0.114890     0.753381     0.392789    Uiso  ? Al
   Al24       1.0     0.447560     0.754212     0.392206    Uiso  ? Al
   Al25       1.0     0.554452     0.868697     0.085084    Uiso  ? Al
   Al26       1.0     0.111573     0.764167     0.897858    Uiso  ? Al
   Al27       1.0     0.776410     0.755086     0.328478    Uiso  ? Al
   Al28       1.0     0.899917     0.862771     0.147237    Uiso  ? Al
   Al29       1.0     0.439707     0.757346     0.900873    Uiso  ? Al
   Al30       1.0     0.562574     0.873278     0.572111    Uiso  ? Al
   Hf1        1.0     0.557634     0.198586     0.085646    Uiso  ? Hf
   Hf2        1.0     0.778233     0.759332     0.834726    Uiso  ? Hf
   Hf3        1.0     0.224617     0.869853     0.627313    Uiso  ? Hf
   Mg1        1.0     0.113572     0.421137     0.835168    Uiso  ? Mg
   Mg2        1.0     0.223753     0.866434     0.144650    Uiso  ? Mg
   Mg3        1.0     0.885600     0.877322     0.612059    Uiso  ? Mg
   N1         1.0     0.222858     0.205369     0.389830    Uiso  ? N
   N2         1.0     0.101597     0.109779     0.144881    Uiso  ? N
   N3         1.0     0.887306     0.207513     0.890743    Uiso  ? N
   N4         1.0     0.766023     0.120428     0.633640    Uiso  ? N
   N5         1.0     0.556793     0.201377     0.377766    Uiso  ? N
   N6         1.0     0.434619     0.083935     0.146257    Uiso  ? N
   N7         1.0     0.230216     0.190758     0.895380    Uiso  ? N
   N8         1.0     0.098647     0.119828     0.640895    Uiso  ? N
   N9         1.0     0.888655     0.207992     0.391542    Uiso  ? N
   N10        1.0     0.794103     0.091036     0.144030    Uiso  ? N
   N11        1.0     0.554489     0.204901     0.879870    Uiso  ? N
   N12        1.0     0.444267     0.093893     0.633967    Uiso  ? N
   N13        1.0     0.226653     0.538582     0.330810    Uiso  ? N
   N14        1.0     0.110360     0.421243     0.137873    Uiso  ? N
   N15        1.0     0.882477     0.528288     0.901000    Uiso  ? N
   N16        1.0     0.784596     0.428375     0.638377    Uiso  ? N
   N17        1.0     0.551583     0.538761     0.335379    Uiso  ? N
   N18        1.0     0.434897     0.445460     0.082348    Uiso  ? N
   N19        1.0     0.228171     0.553113     0.831071    Uiso  ? N
   N20        1.0     0.109678     0.428794     0.625363    Uiso  ? N
   N21        1.0     0.888448     0.536895     0.384637    Uiso  ? N
   N22        1.0     0.781310     0.421348     0.140180    Uiso  ? N
   N23        1.0     0.552664     0.541983     0.833706    Uiso  ? N
   N24        1.0     0.442425     0.432496     0.582585    Uiso  ? N
   N25        1.0     0.221918     0.874889     0.364836    Uiso  ? N
   N26        1.0     0.105088     0.751535     0.082502    Uiso  ? N
   N27        1.0     0.896645     0.885568     0.845375    Uiso  ? N
   N28        1.0     0.770849     0.750520     0.631880    Uiso  ? N
   N29        1.0     0.559051     0.873535     0.383795    Uiso  ? N
   N30        1.0     0.455348     0.747649     0.085712    Uiso  ? N
   N31        1.0     0.224007     0.871781     0.838483    Uiso  ? N
   N32        1.0     0.118843     0.741097     0.574650    Uiso  ? N
   N33        1.0     0.893732     0.867322     0.344177    Uiso  ? N
   N34        1.0     0.775405     0.757027     0.135975    Uiso  ? N
   N35        1.0     0.540874     0.886474     0.891922    Uiso  ? N
   N36        1.0     0.465090     0.745195     0.581304    Uiso  ? N
