
#======================================================================
# CRYSTAL DATA
#----------------------------------------------------------------------
data_VESTA_phase_1

_chemical_name_common                  'Al   Hf   Mg   N                      '
_cell_length_a                         9.617413
_cell_length_b                         9.642618
_cell_length_c                         10.098619
_cell_angle_alpha                      90.006111
_cell_angle_beta                       89.671837
_cell_angle_gamma                      59.989796
_cell_volume                           810.945205
_space_group_name_H-M_alt              'P 1'
_space_group_IT_number                 1

loop_
_space_group_symop_operation_xyz
   'x, y, z'

loop_
   _atom_site_label
   _atom_site_occupancy
   _atom_site_fract_x
   _atom_site_fract_y
   _atom_site_fract_z
   _atom_site_adp_type
   _atom_site_U_iso_or_equiv
   _atom_site_type_symbol
   Al1        1.0     0.110472     0.099280     0.399801    Uiso  ? Al
   Al2        1.0     0.216652     0.207312     0.155420    Uiso  ? Al
   Al3        1.0     0.780394     0.098507     0.832181    Uiso  ? Al
   Al4        1.0     0.883580     0.219514     0.646576    Uiso  ? Al
   Al5        1.0     0.442968     0.094283     0.404597    Uiso  ? Al
   Al6        1.0     0.108844     0.099123     0.908421    Uiso  ? Al
   Al7        1.0     0.218603     0.211562     0.652890    Uiso  ? Al
   Al8        1.0     0.781680     0.093481     0.353662    Uiso  ? Al
   Al9        1.0     0.896897     0.209539     0.153341    Uiso  ? Al
   Al10       1.0     0.432313     0.092598     0.897531    Uiso  ? Al
   Al11       1.0     0.545755     0.211756     0.651441    Uiso  ? Al
   Al12       1.0     0.113075     0.427057     0.401543    Uiso  ? Al
   Al13       1.0     0.217962     0.540681     0.154930    Uiso  ? Al
   Al14       1.0     0.777323     0.424506     0.904234    Uiso  ? Al
   Al15       1.0     0.887483     0.535333     0.648102    Uiso  ? Al
   Al16       1.0     0.443515     0.429454     0.404904    Uiso  ? Al
   Al17       1.0     0.557926     0.543239     0.153067    Uiso  ? Al
   Al18       1.0     0.221786     0.535557     0.654160    Uiso  ? Al
   Al19       1.0     0.776142     0.429995     0.402372    Uiso  ? Al
   Al20       1.0     0.894394     0.532772     0.158791    Uiso  ? Al
   Al21       1.0     0.437776     0.439811     0.897885    Uiso  ? Al
   Al22       1.0     0.560189     0.533553     0.652767    Uiso  ? Al
   Al23       1.0     0.116382     0.754389     0.401348    Uiso  ? Al
   Al24       1.0     0.447152     0.758352     0.400982    Uiso  ? Al
   Al25       1.0     0.554482     0.866204     0.158521    Uiso  ? Al
   Al26       1.0     0.113996     0.759478     0.910065    Uiso  ? Al
   Al27       1.0     0.776663     0.757179     0.406919    Uiso  ? Al
   Al28       1.0     0.900074     0.859020     0.160551    Uiso  ? Al
   Al29       1.0     0.444246     0.757982     0.907404    Uiso  ? Al
   Al30       1.0     0.555516     0.871570     0.647214    Uiso  ? Al
   Hf1        1.0     0.555074     0.205355     0.130369    Uiso  ? Hf
   Hf2        1.0     0.778098     0.761958     0.898372    Uiso  ? Hf
   Hf3        1.0     0.219472     0.874537     0.645712    Uiso  ? Hf
   Mg1        1.0     0.116110     0.422798     0.902718    Uiso  ? Mg
   Mg2        1.0     0.222809     0.872413     0.153324    Uiso  ? Mg
   Mg3        1.0     0.887208     0.869950     0.634134    Uiso  ? Mg
   N1         1.0     0.225341     0.204495     0.346043    Uiso  ? N
   N2         1.0     0.106219     0.108382     0.094494    Uiso  ? N
   N3         1.0     0.892028     0.209971     0.844500    Uiso  ? N
   N4         1.0     0.766585     0.113399     0.632695    Uiso  ? N
   N5         1.0     0.550680     0.207769     0.345221    Uiso  ? N
   N6         1.0     0.436115     0.080267     0.089646    Uiso  ? N
   N7         1.0     0.224967     0.191641     0.837188    Uiso  ? N
   N8         1.0     0.099699     0.115644     0.588603    Uiso  ? N
   N9         1.0     0.890771     0.211188     0.347113    Uiso  ? N
   N10        1.0     0.798479     0.082685     0.139997    Uiso  ? N
   N11        1.0     0.548497     0.207705     0.860005    Uiso  ? N
   N12        1.0     0.442856     0.095094     0.594550    Uiso  ? N
   N13        1.0     0.226433     0.535471     0.344892    Uiso  ? N
   N14        1.0     0.114217     0.425570     0.108993    Uiso  ? N
   N15        1.0     0.882142     0.530066     0.836656    Uiso  ? N
   N16        1.0     0.774257     0.431432     0.590048    Uiso  ? N
   N17        1.0     0.555442     0.537866     0.343905    Uiso  ? N
   N18        1.0     0.436600     0.448475     0.089328    Uiso  ? N
   N19        1.0     0.226572     0.548795     0.839875    Uiso  ? N
   N20        1.0     0.111003     0.428057     0.593632    Uiso  ? N
   N21        1.0     0.889096     0.537756     0.348158    Uiso  ? N
   N22        1.0     0.778364     0.427841     0.096166    Uiso  ? N
   N23        1.0     0.557403     0.538248     0.842762    Uiso  ? N
   N24        1.0     0.443590     0.427809     0.595340    Uiso  ? N
   N25        1.0     0.222641     0.873980     0.366518    Uiso  ? N
   N26        1.0     0.107165     0.750771     0.096724    Uiso  ? N
   N27        1.0     0.900010     0.877692     0.848699    Uiso  ? N
   N28        1.0     0.769463     0.751837     0.595051    Uiso  ? N
   N29        1.0     0.555054     0.873053     0.347598    Uiso  ? N
   N30        1.0     0.461858     0.752520     0.092825    Uiso  ? N
   N31        1.0     0.222187     0.872752     0.856278    Uiso  ? N
   N32        1.0     0.120900     0.742384     0.586417    Uiso  ? N
   N33        1.0     0.891919     0.865097     0.354660    Uiso  ? N
   N34        1.0     0.778806     0.759275     0.107529    Uiso  ? N
   N35        1.0     0.539814     0.877776     0.836855    Uiso  ? N
   N36        1.0     0.459557     0.750398     0.591301    Uiso  ? N
