
#======================================================================
# CRYSTAL DATA
#----------------------------------------------------------------------
data_VESTA_phase_1

_chemical_name_common                  'Al   Hf   Mg   N                      '
_cell_length_a                         9.595996
_cell_length_b                         9.610673
_cell_length_c                         10.296885
_cell_angle_alpha                      90.002029
_cell_angle_beta                       89.927254
_cell_angle_gamma                      59.987164
_cell_volume                           822.287440
_space_group_name_H-M_alt              'P 1'
_space_group_IT_number                 1

loop_
_space_group_symop_operation_xyz
   'x, y, z'

loop_
   _atom_site_label
   _atom_site_occupancy
   _atom_site_fract_x
   _atom_site_fract_y
   _atom_site_fract_z
   _atom_site_adp_type
   _atom_site_U_iso_or_equiv
   _atom_site_type_symbol
   Al1        1.0     0.107494     0.102061     0.333766    Uiso  ? Al
   Al2        1.0     0.218790     0.199604     0.084330    Uiso  ? Al
   Al3        1.0     0.776524     0.105700     0.825150    Uiso  ? Al
   Al4        1.0     0.883265     0.211966     0.581605    Uiso  ? Al
   Al5        1.0     0.438362     0.094681     0.339248    Uiso  ? Al
   Al6        1.0     0.107077     0.103401     0.837539    Uiso  ? Al
   Al7        1.0     0.220504     0.209583     0.582432    Uiso  ? Al
   Al8        1.0     0.783478     0.094323     0.339091    Uiso  ? Al
   Al9        1.0     0.897611     0.201506     0.085293    Uiso  ? Al
   Al10       1.0     0.434768     0.102599     0.826020    Uiso  ? Al
   Al11       1.0     0.556598     0.204216     0.578271    Uiso  ? Al
   Al12       1.0     0.109825     0.433426     0.398191    Uiso  ? Al
   Al13       1.0     0.216028     0.540414     0.149760    Uiso  ? Al
   Al14       1.0     0.774476     0.429638     0.896917    Uiso  ? Al
   Al15       1.0     0.887403     0.536501     0.643911    Uiso  ? Al
   Al16       1.0     0.439916     0.435889     0.398210    Uiso  ? Al
   Al17       1.0     0.558230     0.542902     0.148783    Uiso  ? Al
   Al18       1.0     0.223797     0.534377     0.650074    Uiso  ? Al
   Al19       1.0     0.773745     0.433490     0.397245    Uiso  ? Al
   Al20       1.0     0.896281     0.528717     0.157080    Uiso  ? Al
   Al21       1.0     0.437082     0.442277     0.894960    Uiso  ? Al
   Al22       1.0     0.561082     0.530951     0.648579    Uiso  ? Al
   Al23       1.0     0.112871     0.755302     0.399105    Uiso  ? Al
   Al24       1.0     0.449053     0.756822     0.400280    Uiso  ? Al
   Al25       1.0     0.558246     0.858676     0.159567    Uiso  ? Al
   Al26       1.0     0.113051     0.762356     0.902374    Uiso  ? Al
   Al27       1.0     0.778215     0.757357     0.404229    Uiso  ? Al
   Al28       1.0     0.900573     0.859012     0.158411    Uiso  ? Al
   Al29       1.0     0.441960     0.761927     0.900707    Uiso  ? Al
   Al30       1.0     0.560634     0.865737     0.643951    Uiso  ? Al
   Hf1        1.0     0.557850     0.200149     0.093604    Uiso  ? Hf
   Hf2        1.0     0.778350     0.761684     0.899569    Uiso  ? Hf
   Hf3        1.0     0.221235     0.871300     0.629832    Uiso  ? Hf
   Mg1        1.0     0.114456     0.428746     0.895873    Uiso  ? Mg
   Mg2        1.0     0.226244     0.865329     0.147369    Uiso  ? Mg
   Mg3        1.0     0.886202     0.871227     0.637951    Uiso  ? Mg
   N1         1.0     0.223816     0.201240     0.396606    Uiso  ? N
   N2         1.0     0.102372     0.110581     0.151141    Uiso  ? N
   N3         1.0     0.890608     0.200794     0.896432    Uiso  ? N
   N4         1.0     0.764954     0.119707     0.641786    Uiso  ? N
   N5         1.0     0.557948     0.200300     0.382971    Uiso  ? N
   N6         1.0     0.433464     0.088082     0.151116    Uiso  ? N
   N7         1.0     0.233893     0.183610     0.899442    Uiso  ? N
   N8         1.0     0.094950     0.123619     0.648343    Uiso  ? N
   N9         1.0     0.891062     0.201593     0.394722    Uiso  ? N
   N10        1.0     0.795098     0.089695     0.150383    Uiso  ? N
   N11        1.0     0.555727     0.201698     0.888407    Uiso  ? N
   N12        1.0     0.440602     0.101408     0.637341    Uiso  ? N
   N13        1.0     0.224550     0.537156     0.336872    Uiso  ? N
   N14        1.0     0.112192     0.426835     0.103295    Uiso  ? N
   N15        1.0     0.882518     0.530351     0.829326    Uiso  ? N
   N16        1.0     0.772066     0.436401     0.585584    Uiso  ? N
   N17        1.0     0.554515     0.538679     0.336447    Uiso  ? N
   N18        1.0     0.434782     0.449226     0.087607    Uiso  ? N
   N19        1.0     0.228123     0.548584     0.833228    Uiso  ? N
   N20        1.0     0.107527     0.435830     0.589132    Uiso  ? N
   N21        1.0     0.889671     0.536775     0.342900    Uiso  ? N
   N22        1.0     0.776218     0.431998     0.093413    Uiso  ? N
   N23        1.0     0.556737     0.537736     0.836354    Uiso  ? N
   N24        1.0     0.441339     0.433272     0.585862    Uiso  ? N
   N25        1.0     0.222483     0.873932     0.371517    Uiso  ? N
   N26        1.0     0.105241     0.752236     0.087521    Uiso  ? N
   N27        1.0     0.895980     0.880210     0.845508    Uiso  ? N
   N28        1.0     0.771222     0.753852     0.587844    Uiso  ? N
   N29        1.0     0.559293     0.863647     0.346170    Uiso  ? N
   N30        1.0     0.460917     0.753711     0.084329    Uiso  ? N
   N31        1.0     0.223875     0.869322     0.841291    Uiso  ? N
   N32        1.0     0.116207     0.742028     0.580810    Uiso  ? N
   N33        1.0     0.892750     0.863412     0.347071    Uiso  ? N
   N34        1.0     0.778166     0.760766     0.105055    Uiso  ? N
   N35        1.0     0.544415     0.873405     0.832165    Uiso  ? N
   N36        1.0     0.463190     0.748410     0.586367    Uiso  ? N
