
#======================================================================
# CRYSTAL DATA
#----------------------------------------------------------------------
data_VESTA_phase_1

_chemical_name_common                  'Al   Hf   Mg   N                      '
_cell_length_a                         9.612878
_cell_length_b                         9.634136
_cell_length_c                         10.163035
_cell_angle_alpha                      89.884621
_cell_angle_beta                       89.887207
_cell_angle_gamma                      60.010979
_cell_volume                           815.205613
_space_group_name_H-M_alt              'P 1'
_space_group_IT_number                 1

loop_
_space_group_symop_operation_xyz
   'x, y, z'

loop_
   _atom_site_label
   _atom_site_occupancy
   _atom_site_fract_x
   _atom_site_fract_y
   _atom_site_fract_z
   _atom_site_adp_type
   _atom_site_U_iso_or_equiv
   _atom_site_type_symbol
   Al1        1.0     0.109006     0.097702     0.321562    Uiso  ? Al
   Al2        1.0     0.215951     0.204763     0.073691    Uiso  ? Al
   Al3        1.0     0.780562     0.100323     0.815280    Uiso  ? Al
   Al4        1.0     0.881498     0.215764     0.571427    Uiso  ? Al
   Al5        1.0     0.441835     0.091114     0.327920    Uiso  ? Al
   Al6        1.0     0.106698     0.102170     0.824870    Uiso  ? Al
   Al7        1.0     0.218336     0.214418     0.569369    Uiso  ? Al
   Al8        1.0     0.784619     0.091883     0.323986    Uiso  ? Al
   Al9        1.0     0.892677     0.209000     0.072765    Uiso  ? Al
   Al10       1.0     0.435679     0.095256     0.817586    Uiso  ? Al
   Al11       1.0     0.555650     0.207163     0.569636    Uiso  ? Al
   Al12       1.0     0.108494     0.423475     0.325941    Uiso  ? Al
   Al13       1.0     0.215484     0.546223     0.140897    Uiso  ? Al
   Al14       1.0     0.777087     0.424284     0.821130    Uiso  ? Al
   Al15       1.0     0.890560     0.535800     0.566259    Uiso  ? Al
   Al16       1.0     0.447970     0.429812     0.329287    Uiso  ? Al
   Al17       1.0     0.559177     0.541896     0.072328    Uiso  ? Al
   Al18       1.0     0.218840     0.538320     0.636534    Uiso  ? Al
   Al19       1.0     0.776944     0.427077     0.321134    Uiso  ? Al
   Al20       1.0     0.889987     0.532444     0.077763    Uiso  ? Al
   Al21       1.0     0.448671     0.429801     0.814940    Uiso  ? Al
   Al22       1.0     0.563144     0.532838     0.570671    Uiso  ? Al
   Al23       1.0     0.112799     0.754465     0.384739    Uiso  ? Al
   Al24       1.0     0.448502     0.758562     0.321458    Uiso  ? Al
   Al25       1.0     0.552370     0.868204     0.077160    Uiso  ? Al
   Al26       1.0     0.120439     0.755063     0.888881    Uiso  ? Al
   Al27       1.0     0.779032     0.760726     0.316442    Uiso  ? Al
   Al28       1.0     0.893089     0.871706     0.080643    Uiso  ? Al
   Al29       1.0     0.446813     0.755781     0.823989    Uiso  ? Al
   Al30       1.0     0.560016     0.868667     0.567338    Uiso  ? Al
   Hf1        1.0     0.553826     0.205540     0.076464    Uiso  ? Hf
   Hf2        1.0     0.778976     0.759212     0.828966    Uiso  ? Hf
   Hf3        1.0     0.222477     0.874971     0.597819    Uiso  ? Hf
   Mg1        1.0     0.112319     0.418789     0.828480    Uiso  ? Mg
   Mg2        1.0     0.226319     0.876853     0.086183    Uiso  ? Mg
   Mg3        1.0     0.874907     0.879939     0.567280    Uiso  ? Mg
   N1         1.0     0.222617     0.203833     0.381680    Uiso  ? N
   N2         1.0     0.101208     0.110277     0.136440    Uiso  ? N
   N3         1.0     0.886510     0.207804     0.882915    Uiso  ? N
   N4         1.0     0.770158     0.111728     0.630338    Uiso  ? N
   N5         1.0     0.556416     0.203879     0.374325    Uiso  ? N
   N6         1.0     0.436053     0.085461     0.138570    Uiso  ? N
   N7         1.0     0.229979     0.188602     0.888371    Uiso  ? N
   N8         1.0     0.095926     0.121943     0.634480    Uiso  ? N
   N9         1.0     0.887941     0.207464     0.382529    Uiso  ? N
   N10        1.0     0.791961     0.091183     0.133802    Uiso  ? N
   N11        1.0     0.553035     0.205550     0.870575    Uiso  ? N
   N12        1.0     0.444072     0.092022     0.626830    Uiso  ? N
   N13        1.0     0.221007     0.539863     0.332509    Uiso  ? N
   N14        1.0     0.110374     0.422875     0.131317    Uiso  ? N
   N15        1.0     0.880612     0.527938     0.892406    Uiso  ? N
   N16        1.0     0.778083     0.430089     0.631072    Uiso  ? N
   N17        1.0     0.557455     0.538828     0.382906    Uiso  ? N
   N18        1.0     0.445426     0.439753     0.134744    Uiso  ? N
   N19        1.0     0.226465     0.548411     0.826115    Uiso  ? N
   N20        1.0     0.107562     0.428035     0.616081    Uiso  ? N
   N21        1.0     0.885510     0.539736     0.375192    Uiso  ? N
   N22        1.0     0.776059     0.425861     0.133274    Uiso  ? N
   N23        1.0     0.556651     0.536580     0.881724    Uiso  ? N
   N24        1.0     0.451099     0.424521     0.623150    Uiso  ? N
   N25        1.0     0.226370     0.875977     0.377427    Uiso  ? N
   N26        1.0     0.113528     0.749456     0.076888    Uiso  ? N
   N27        1.0     0.888745     0.888941     0.883051    Uiso  ? N
   N28        1.0     0.772214     0.751648     0.626829    Uiso  ? N
   N29        1.0     0.558222     0.870366     0.379563    Uiso  ? N
   N30        1.0     0.461367     0.750683     0.135823    Uiso  ? N
   N31        1.0     0.220574     0.873988     0.840431    Uiso  ? N
   N32        1.0     0.115115     0.743356     0.573416    Uiso  ? N
   N33        1.0     0.887599     0.872004     0.359257    Uiso  ? N
   N34        1.0     0.777346     0.761499     0.122668    Uiso  ? N
   N35        1.0     0.539054     0.879641     0.886850    Uiso  ? N
   N36        1.0     0.468148     0.747241     0.634231    Uiso  ? N
