
#======================================================================
# CRYSTAL DATA
#----------------------------------------------------------------------
data_VESTA_phase_1

_chemical_name_common                  'Al   Hf   Mg   N                      '
_cell_length_a                         9.613536
_cell_length_b                         9.632499
_cell_length_c                         10.159762
_cell_angle_alpha                      89.997726
_cell_angle_beta                       89.645172
_cell_angle_gamma                      60.057133
_cell_volume                           815.220351
_space_group_name_H-M_alt              'P 1'
_space_group_IT_number                 1

loop_
_space_group_symop_operation_xyz
   'x, y, z'

loop_
   _atom_site_label
   _atom_site_occupancy
   _atom_site_fract_x
   _atom_site_fract_y
   _atom_site_fract_z
   _atom_site_adp_type
   _atom_site_U_iso_or_equiv
   _atom_site_type_symbol
   Al1        1.0     0.114672     0.095984     0.398152    Uiso  ? Al
   Al2        1.0     0.216529     0.207707     0.157564    Uiso  ? Al
   Al3        1.0     0.784315     0.101948     0.831226    Uiso  ? Al
   Al4        1.0     0.877813     0.213231     0.581876    Uiso  ? Al
   Al5        1.0     0.443910     0.094432     0.405704    Uiso  ? Al
   Al6        1.0     0.117393     0.094224     0.910296    Uiso  ? Al
   Al7        1.0     0.218521     0.211359     0.653814    Uiso  ? Al
   Al8        1.0     0.784110     0.093487     0.342051    Uiso  ? Al
   Al9        1.0     0.892556     0.204819     0.091597    Uiso  ? Al
   Al10       1.0     0.433537     0.093100     0.898199    Uiso  ? Al
   Al11       1.0     0.545975     0.212230     0.654870    Uiso  ? Al
   Al12       1.0     0.112998     0.427199     0.402758    Uiso  ? Al
   Al13       1.0     0.217468     0.540937     0.155650    Uiso  ? Al
   Al14       1.0     0.773689     0.430077     0.903811    Uiso  ? Al
   Al15       1.0     0.887271     0.534675     0.648503    Uiso  ? Al
   Al16       1.0     0.443453     0.429046     0.405357    Uiso  ? Al
   Al17       1.0     0.556944     0.544484     0.153763    Uiso  ? Al
   Al18       1.0     0.221558     0.535630     0.654344    Uiso  ? Al
   Al19       1.0     0.772088     0.436314     0.399639    Uiso  ? Al
   Al20       1.0     0.894402     0.532473     0.159821    Uiso  ? Al
   Al21       1.0     0.437409     0.439609     0.898368    Uiso  ? Al
   Al22       1.0     0.560364     0.533616     0.653319    Uiso  ? Al
   Al23       1.0     0.115715     0.754465     0.402185    Uiso  ? Al
   Al24       1.0     0.446715     0.758950     0.402106    Uiso  ? Al
   Al25       1.0     0.554364     0.866384     0.158938    Uiso  ? Al
   Al26       1.0     0.113824     0.759355     0.910463    Uiso  ? Al
   Al27       1.0     0.776784     0.758107     0.407606    Uiso  ? Al
   Al28       1.0     0.900919     0.857327     0.161044    Uiso  ? Al
   Al29       1.0     0.444789     0.758039     0.908098    Uiso  ? Al
   Al30       1.0     0.555992     0.871620     0.647785    Uiso  ? Al
   Hf1        1.0     0.553395     0.206566     0.131399    Uiso  ? Hf
   Hf2        1.0     0.778488     0.762503     0.899256    Uiso  ? Hf
   Hf3        1.0     0.219752     0.873782     0.647463    Uiso  ? Hf
   Mg1        1.0     0.115963     0.422830     0.903500    Uiso  ? Mg
   Mg2        1.0     0.223648     0.870930     0.155249    Uiso  ? Mg
   Mg3        1.0     0.886777     0.870598     0.636663    Uiso  ? Mg
   N1         1.0     0.225748     0.204905     0.346871    Uiso  ? N
   N2         1.0     0.112321     0.104346     0.098310    Uiso  ? N
   N3         1.0     0.887850     0.204853     0.896100    Uiso  ? N
   N4         1.0     0.768093     0.115482     0.642940    Uiso  ? N
   N5         1.0     0.550725     0.207704     0.344214    Uiso  ? N
   N6         1.0     0.436304     0.080759     0.089797    Uiso  ? N
   N7         1.0     0.226022     0.191818     0.837350    Uiso  ? N
   N8         1.0     0.103991     0.112523     0.590565    Uiso  ? N
   N9         1.0     0.885629     0.207386     0.386857    Uiso  ? N
   N10        1.0     0.799064     0.084019     0.147022    Uiso  ? N
   N11        1.0     0.548796     0.208136     0.860883    Uiso  ? N
   N12        1.0     0.443939     0.095427     0.595036    Uiso  ? N
   N13        1.0     0.226292     0.535450     0.344979    Uiso  ? N
   N14        1.0     0.114084     0.425522     0.109128    Uiso  ? N
   N15        1.0     0.882256     0.530183     0.836007    Uiso  ? N
   N16        1.0     0.771727     0.435594     0.589717    Uiso  ? N
   N17        1.0     0.553327     0.539404     0.343288    Uiso  ? N
   N18        1.0     0.435996     0.448951     0.089189    Uiso  ? N
   N19        1.0     0.226506     0.548940     0.839403    Uiso  ? N
   N20        1.0     0.110939     0.427795     0.593815    Uiso  ? N
   N21        1.0     0.889594     0.538336     0.347886    Uiso  ? N
   N22        1.0     0.775545     0.433427     0.098422    Uiso  ? N
   N23        1.0     0.556327     0.538927     0.842314    Uiso  ? N
   N24        1.0     0.444001     0.427423     0.595214    Uiso  ? N
   N25        1.0     0.223370     0.872351     0.365855    Uiso  ? N
   N26        1.0     0.107165     0.750721     0.096185    Uiso  ? N
   N27        1.0     0.899901     0.878514     0.849596    Uiso  ? N
   N28        1.0     0.769757     0.752223     0.594758    Uiso  ? N
   N29        1.0     0.555000     0.873176     0.347529    Uiso  ? N
   N30        1.0     0.461517     0.753102     0.092399    Uiso  ? N
   N31        1.0     0.223438     0.871610     0.856637    Uiso  ? N
   N32        1.0     0.119999     0.742773     0.586249    Uiso  ? N
   N33        1.0     0.892142     0.864663     0.353662    Uiso  ? N
   N34        1.0     0.778640     0.759820     0.107429    Uiso  ? N
   N35        1.0     0.540404     0.877941     0.837027    Uiso  ? N
   N36        1.0     0.459233     0.751020     0.591431    Uiso  ? N
