
#======================================================================
# CRYSTAL DATA
#----------------------------------------------------------------------
data_VESTA_phase_1

_chemical_name_common                  'Al   Hf   Mg   N                      '
_cell_length_a                         9.596004
_cell_length_b                         9.623033
_cell_length_c                         10.088105
_cell_angle_alpha                      90.064758
_cell_angle_beta                       89.780602
_cell_angle_gamma                      59.967094
_cell_volume                           806.478172
_space_group_name_H-M_alt              'P 1'
_space_group_IT_number                 1

loop_
_space_group_symop_operation_xyz
   'x, y, z'

loop_
   _atom_site_label
   _atom_site_occupancy
   _atom_site_fract_x
   _atom_site_fract_y
   _atom_site_fract_z
   _atom_site_adp_type
   _atom_site_U_iso_or_equiv
   _atom_site_type_symbol
   Al1        1.0     0.108878     0.099825     0.399401    Uiso  ? Al
   Al2        1.0     0.215808     0.207578     0.154240    Uiso  ? Al
   Al3        1.0     0.782833     0.096114     0.881606    Uiso  ? Al
   Al4        1.0     0.882242     0.216904     0.649595    Uiso  ? Al
   Al5        1.0     0.442384     0.093323     0.405334    Uiso  ? Al
   Al6        1.0     0.108940     0.099178     0.907173    Uiso  ? Al
   Al7        1.0     0.219313     0.211413     0.652448    Uiso  ? Al
   Al8        1.0     0.779316     0.096932     0.407026    Uiso  ? Al
   Al9        1.0     0.893748     0.206733     0.153656    Uiso  ? Al
   Al10       1.0     0.433867     0.093335     0.896445    Uiso  ? Al
   Al11       1.0     0.551942     0.208679     0.651399    Uiso  ? Al
   Al12       1.0     0.113142     0.427076     0.401136    Uiso  ? Al
   Al13       1.0     0.217087     0.541408     0.154124    Uiso  ? Al
   Al14       1.0     0.777047     0.424614     0.903688    Uiso  ? Al
   Al15       1.0     0.888011     0.535035     0.647230    Uiso  ? Al
   Al16       1.0     0.443002     0.430815     0.406076    Uiso  ? Al
   Al17       1.0     0.558368     0.542433     0.152401    Uiso  ? Al
   Al18       1.0     0.222453     0.535278     0.653927    Uiso  ? Al
   Al19       1.0     0.776944     0.428130     0.402347    Uiso  ? Al
   Al20       1.0     0.894120     0.532657     0.158525    Uiso  ? Al
   Al21       1.0     0.439171     0.437542     0.896939    Uiso  ? Al
   Al22       1.0     0.560677     0.533584     0.652611    Uiso  ? Al
   Al23       1.0     0.114673     0.755867     0.400127    Uiso  ? Al
   Al24       1.0     0.447656     0.758011     0.400378    Uiso  ? Al
   Al25       1.0     0.554541     0.866422     0.157738    Uiso  ? Al
   Al26       1.0     0.114289     0.759337     0.909743    Uiso  ? Al
   Al27       1.0     0.777161     0.758217     0.405686    Uiso  ? Al
   Al28       1.0     0.896104     0.867348     0.160319    Uiso  ? Al
   Al29       1.0     0.443971     0.758037     0.907076    Uiso  ? Al
   Al30       1.0     0.556258     0.871205     0.646935    Uiso  ? Al
   Hf1        1.0     0.555681     0.205187     0.140868    Uiso  ? Hf
   Hf2        1.0     0.778805     0.761053     0.898511    Uiso  ? Hf
   Hf3        1.0     0.219738     0.874415     0.644336    Uiso  ? Hf
   Mg1        1.0     0.116415     0.422786     0.902681    Uiso  ? Mg
   Mg2        1.0     0.222287     0.873270     0.153124    Uiso  ? Mg
   Mg3        1.0     0.887028     0.871599     0.638710    Uiso  ? Mg
   N1         1.0     0.224876     0.204391     0.345264    Uiso  ? N
   N2         1.0     0.104103     0.109369     0.093445    Uiso  ? N
   N3         1.0     0.889433     0.208700     0.840434    Uiso  ? N
   N4         1.0     0.768818     0.112653     0.596541    Uiso  ? N
   N5         1.0     0.554438     0.205729     0.349353    Uiso  ? N
   N6         1.0     0.436967     0.082093     0.088893    Uiso  ? N
   N7         1.0     0.225231     0.191746     0.837009    Uiso  ? N
   N8         1.0     0.098874     0.116355     0.588615    Uiso  ? N
   N9         1.0     0.887787     0.207554     0.344269    Uiso  ? N
   N10        1.0     0.796350     0.084839     0.095767    Uiso  ? N
   N11        1.0     0.551832     0.206113     0.851022    Uiso  ? N
   N12        1.0     0.443689     0.094457     0.594552    Uiso  ? N
   N13        1.0     0.226246     0.535759     0.344235    Uiso  ? N
   N14        1.0     0.113720     0.425930     0.108504    Uiso  ? N
   N15        1.0     0.882501     0.529315     0.836221    Uiso  ? N
   N16        1.0     0.775346     0.429803     0.590576    Uiso  ? N
   N17        1.0     0.555849     0.537336     0.343436    Uiso  ? N
   N18        1.0     0.437377     0.445656     0.088776    Uiso  ? N
   N19        1.0     0.226842     0.548529     0.839990    Uiso  ? N
   N20        1.0     0.111655     0.427884     0.593148    Uiso  ? N
   N21        1.0     0.889012     0.537380     0.348057    Uiso  ? N
   N22        1.0     0.778719     0.426730     0.095497    Uiso  ? N
   N23        1.0     0.557250     0.538310     0.842778    Uiso  ? N
   N24        1.0     0.444448     0.427560     0.595869    Uiso  ? N
   N25        1.0     0.222687     0.874236     0.366607    Uiso  ? N
   N26        1.0     0.105204     0.752557     0.096875    Uiso  ? N
   N27        1.0     0.899806     0.878007     0.845031    Uiso  ? N
   N28        1.0     0.770466     0.752102     0.594252    Uiso  ? N
   N29        1.0     0.554898     0.873019     0.346810    Uiso  ? N
   N30        1.0     0.461292     0.752517     0.092649    Uiso  ? N
   N31        1.0     0.221774     0.873040     0.855378    Uiso  ? N
   N32        1.0     0.120364     0.742353     0.585456    Uiso  ? N
   N33        1.0     0.888327     0.872440     0.352355    Uiso  ? N
   N34        1.0     0.778918     0.760197     0.107663    Uiso  ? N
   N35        1.0     0.540336     0.877270     0.836956    Uiso  ? N
   N36        1.0     0.460411     0.749990     0.590739    Uiso  ? N
