
#======================================================================
# CRYSTAL DATA
#----------------------------------------------------------------------
data_VESTA_phase_1

_chemical_name_common                  'Al   Hf   Mg   N                      '
_cell_length_a                         9.602880
_cell_length_b                         9.620030
_cell_length_c                         10.197283
_cell_angle_alpha                      89.997200
_cell_angle_beta                       89.651115
_cell_angle_gamma                      60.077110
_cell_volume                           816.430678
_space_group_name_H-M_alt              'P 1'
_space_group_IT_number                 1

loop_
_space_group_symop_operation_xyz
   'x, y, z'

loop_
   _atom_site_label
   _atom_site_occupancy
   _atom_site_fract_x
   _atom_site_fract_y
   _atom_site_fract_z
   _atom_site_adp_type
   _atom_site_U_iso_or_equiv
   _atom_site_type_symbol
   Al1        1.0     0.114880     0.095537     0.395217    Uiso  ? Al
   Al2        1.0     0.216126     0.207479     0.153777    Uiso  ? Al
   Al3        1.0     0.783943     0.102223     0.827467    Uiso  ? Al
   Al4        1.0     0.877794     0.212871     0.577986    Uiso  ? Al
   Al5        1.0     0.443953     0.094307     0.402007    Uiso  ? Al
   Al6        1.0     0.118139     0.093998     0.906023    Uiso  ? Al
   Al7        1.0     0.218840     0.211292     0.650022    Uiso  ? Al
   Al8        1.0     0.784676     0.093459     0.337123    Uiso  ? Al
   Al9        1.0     0.892316     0.204628     0.085078    Uiso  ? Al
   Al10       1.0     0.433840     0.093337     0.894444    Uiso  ? Al
   Al11       1.0     0.546015     0.212407     0.651239    Uiso  ? Al
   Al12       1.0     0.112909     0.427029     0.398961    Uiso  ? Al
   Al13       1.0     0.217197     0.541105     0.152001    Uiso  ? Al
   Al14       1.0     0.773466     0.430631     0.899339    Uiso  ? Al
   Al15       1.0     0.887241     0.535098     0.644447    Uiso  ? Al
   Al16       1.0     0.443421     0.429159     0.401593    Uiso  ? Al
   Al17       1.0     0.557021     0.544498     0.149743    Uiso  ? Al
   Al18       1.0     0.221475     0.535684     0.650367    Uiso  ? Al
   Al19       1.0     0.772033     0.436211     0.396423    Uiso  ? Al
   Al20       1.0     0.894251     0.532054     0.156193    Uiso  ? Al
   Al21       1.0     0.437292     0.439579     0.894599    Uiso  ? Al
   Al22       1.0     0.560368     0.533683     0.649472    Uiso  ? Al
   Al23       1.0     0.115494     0.754630     0.398498    Uiso  ? Al
   Al24       1.0     0.446668     0.758984     0.398332    Uiso  ? Al
   Al25       1.0     0.554167     0.866465     0.155214    Uiso  ? Al
   Al26       1.0     0.113926     0.759215     0.906731    Uiso  ? Al
   Al27       1.0     0.776891     0.758212     0.403306    Uiso  ? Al
   Al28       1.0     0.901010     0.857275     0.157046    Uiso  ? Al
   Al29       1.0     0.444926     0.758087     0.904277    Uiso  ? Al
   Al30       1.0     0.556437     0.871592     0.643905    Uiso  ? Al
   Hf1        1.0     0.552722     0.207035     0.128656    Uiso  ? Hf
   Hf2        1.0     0.778421     0.762432     0.896557    Uiso  ? Hf
   Hf3        1.0     0.219992     0.873394     0.644289    Uiso  ? Hf
   Mg1        1.0     0.115975     0.422878     0.899892    Uiso  ? Mg
   Mg2        1.0     0.223464     0.871104     0.151505    Uiso  ? Mg
   Mg3        1.0     0.886651     0.870530     0.634008    Uiso  ? Mg
   N1         1.0     0.225620     0.204622     0.342709    Uiso  ? N
   N2         1.0     0.112257     0.104218     0.093246    Uiso  ? N
   N3         1.0     0.887982     0.204937     0.891947    Uiso  ? N
   N4         1.0     0.768277     0.115544     0.640369    Uiso  ? N
   N5         1.0     0.550854     0.207665     0.340270    Uiso  ? N
   N6         1.0     0.436194     0.080846     0.085570    Uiso  ? N
   N7         1.0     0.226402     0.191947     0.832984    Uiso  ? N
   N8         1.0     0.104502     0.111972     0.586894    Uiso  ? N
   N9         1.0     0.885590     0.206920     0.384617    Uiso  ? N
   N10        1.0     0.798862     0.084520     0.142996    Uiso  ? N
   N11        1.0     0.548546     0.208509     0.856543    Uiso  ? N
   N12        1.0     0.444141     0.095461     0.590789    Uiso  ? N
   N13        1.0     0.226188     0.535461     0.340864    Uiso  ? N
   N14        1.0     0.113953     0.425430     0.105113    Uiso  ? N
   N15        1.0     0.882269     0.530662     0.831418    Uiso  ? N
   N16        1.0     0.771756     0.435666     0.585840    Uiso  ? N
   N17        1.0     0.553521     0.539307     0.338951    Uiso  ? N
   N18        1.0     0.435677     0.449162     0.084922    Uiso  ? N
   N19        1.0     0.226456     0.549035     0.834949    Uiso  ? N
   N20        1.0     0.110986     0.427692     0.589478    Uiso  ? N
   N21        1.0     0.889556     0.537992     0.343681    Uiso  ? N
   N22        1.0     0.775362     0.433503     0.093429    Uiso  ? N
   N23        1.0     0.556114     0.539113     0.837954    Uiso  ? N
   N24        1.0     0.443970     0.427571     0.590896    Uiso  ? N
   N25        1.0     0.223407     0.872193     0.361379    Uiso  ? N
   N26        1.0     0.107127     0.750699     0.091754    Uiso  ? N
   N27        1.0     0.899709     0.878446     0.846108    Uiso  ? N
   N28        1.0     0.769879     0.752394     0.589706    Uiso  ? N
   N29        1.0     0.554907     0.873229     0.343219    Uiso  ? N
   N30        1.0     0.461448     0.753184     0.088022    Uiso  ? N
   N31        1.0     0.223649     0.871432     0.852583    Uiso  ? N
   N32        1.0     0.119654     0.743026     0.582007    Uiso  ? N
   N33        1.0     0.892369     0.864582     0.348745    Uiso  ? N
   N34        1.0     0.778578     0.759661     0.103916    Uiso  ? N
   N35        1.0     0.540808     0.877960     0.832767    Uiso  ? N
   N36        1.0     0.459237     0.751158     0.587163    Uiso  ? N
