
#======================================================================
# CRYSTAL DATA
#----------------------------------------------------------------------
data_VESTA_phase_1

_chemical_name_common                  'Al   Hf   Mg   N                      '
_cell_length_a                         9.636289
_cell_length_b                         9.621762
_cell_length_c                         10.294452
_cell_angle_alpha                      89.924774
_cell_angle_beta                       89.884056
_cell_angle_gamma                      59.903782
_cell_volume                           825.801125
_space_group_name_H-M_alt              'P 1'
_space_group_IT_number                 1

loop_
_space_group_symop_operation_xyz
   'x, y, z'

loop_
   _atom_site_label
   _atom_site_occupancy
   _atom_site_fract_x
   _atom_site_fract_y
   _atom_site_fract_z
   _atom_site_adp_type
   _atom_site_U_iso_or_equiv
   _atom_site_type_symbol
   Al1        1.0     0.107823     0.100196     0.334375    Uiso  ? Al
   Al2        1.0     0.218554     0.199594     0.086301    Uiso  ? Al
   Al3        1.0     0.776593     0.105642     0.824589    Uiso  ? Al
   Al4        1.0     0.880834     0.216794     0.581367    Uiso  ? Al
   Al5        1.0     0.440298     0.092693     0.340459    Uiso  ? Al
   Al6        1.0     0.106924     0.104221     0.837927    Uiso  ? Al
   Al7        1.0     0.217969     0.214206     0.580804    Uiso  ? Al
   Al8        1.0     0.783207     0.093460     0.340993    Uiso  ? Al
   Al9        1.0     0.894863     0.206652     0.084472    Uiso  ? Al
   Al10       1.0     0.433477     0.102992     0.825343    Uiso  ? Al
   Al11       1.0     0.556908     0.203147     0.579127    Uiso  ? Al
   Al12       1.0     0.114077     0.426332     0.364774    Uiso  ? Al
   Al13       1.0     0.219132     0.542331     0.149513    Uiso  ? Al
   Al14       1.0     0.777878     0.420983     0.830407    Uiso  ? Al
   Al15       1.0     0.891553     0.538703     0.646087    Uiso  ? Al
   Al16       1.0     0.440008     0.435547     0.399948    Uiso  ? Al
   Al17       1.0     0.552492     0.544835     0.148481    Uiso  ? Al
   Al18       1.0     0.224457     0.534573     0.650549    Uiso  ? Al
   Al19       1.0     0.778870     0.421108     0.334377    Uiso  ? Al
   Al20       1.0     0.894333     0.535137     0.155087    Uiso  ? Al
   Al21       1.0     0.437367     0.442535     0.896138    Uiso  ? Al
   Al22       1.0     0.553702     0.534273     0.648644    Uiso  ? Al
   Al23       1.0     0.113365     0.754627     0.400702    Uiso  ? Al
   Al24       1.0     0.449596     0.755660     0.401110    Uiso  ? Al
   Al25       1.0     0.557869     0.858499     0.161050    Uiso  ? Al
   Al26       1.0     0.112750     0.763591     0.902525    Uiso  ? Al
   Al27       1.0     0.779338     0.754699     0.406447    Uiso  ? Al
   Al28       1.0     0.901063     0.859874     0.159772    Uiso  ? Al
   Al29       1.0     0.441493     0.762102     0.901272    Uiso  ? Al
   Al30       1.0     0.559906     0.865824     0.644086    Uiso  ? Al
   Hf1        1.0     0.558944     0.198339     0.093811    Uiso  ? Hf
   Hf2        1.0     0.775002     0.766983     0.900767    Uiso  ? Hf
   Hf3        1.0     0.221405     0.872153     0.630689    Uiso  ? Hf
   Mg1        1.0     0.117894     0.425380     0.877064    Uiso  ? Mg
   Mg2        1.0     0.225577     0.866267     0.147134    Uiso  ? Mg
   Mg3        1.0     0.886955     0.870735     0.637952    Uiso  ? Mg
   N1         1.0     0.224270     0.200587     0.394923    Uiso  ? N
   N2         1.0     0.101095     0.110522     0.150877    Uiso  ? N
   N3         1.0     0.887046     0.207425     0.896566    Uiso  ? N
   N4         1.0     0.765646     0.118624     0.640417    Uiso  ? N
   N5         1.0     0.558039     0.199694     0.383512    Uiso  ? N
   N6         1.0     0.434106     0.087245     0.151760    Uiso  ? N
   N7         1.0     0.233055     0.185139     0.901624    Uiso  ? N
   N8         1.0     0.095551     0.123197     0.646906    Uiso  ? N
   N9         1.0     0.888517     0.205655     0.396402    Uiso  ? N
   N10        1.0     0.795455     0.089824     0.151052    Uiso  ? N
   N11        1.0     0.555897     0.200733     0.888206    Uiso  ? N
   N12        1.0     0.439725     0.101262     0.636191    Uiso  ? N
   N13        1.0     0.227334     0.538813     0.336564    Uiso  ? N
   N14        1.0     0.116323     0.422341     0.125335    Uiso  ? N
   N15        1.0     0.883301     0.536884     0.839011    Uiso  ? N
   N16        1.0     0.776849     0.426764     0.638070    Uiso  ? N
   N17        1.0     0.549118     0.540475     0.338611    Uiso  ? N
   N18        1.0     0.435462     0.447576     0.087323    Uiso  ? N
   N19        1.0     0.229671     0.550596     0.835077    Uiso  ? N
   N20        1.0     0.109913     0.433470     0.604199    Uiso  ? N
   N21        1.0     0.888959     0.538712     0.344893    Uiso  ? N
   N22        1.0     0.778968     0.422750     0.141361    Uiso  ? N
   N23        1.0     0.549984     0.542217     0.838475    Uiso  ? N
   N24        1.0     0.441345     0.432274     0.586526    Uiso  ? N
   N25        1.0     0.222386     0.873913     0.372166    Uiso  ? N
   N26        1.0     0.104812     0.752889     0.087708    Uiso  ? N
   N27        1.0     0.896684     0.881483     0.846016    Uiso  ? N
   N28        1.0     0.770809     0.753659     0.589665    Uiso  ? N
   N29        1.0     0.560320     0.862149     0.347400    Uiso  ? N
   N30        1.0     0.461069     0.754005     0.084906    Uiso  ? N
   N31        1.0     0.222775     0.871606     0.842701    Uiso  ? N
   N32        1.0     0.116937     0.742698     0.582097    Uiso  ? N
   N33        1.0     0.893227     0.862674     0.348583    Uiso  ? N
   N34        1.0     0.777352     0.762719     0.105997    Uiso  ? N
   N35        1.0     0.541888     0.874458     0.832032    Uiso  ? N
   N36        1.0     0.463384     0.748232     0.586272    Uiso  ? N
