
#======================================================================
# CRYSTAL DATA
#----------------------------------------------------------------------
data_VESTA_phase_1

_chemical_name_common                  'Al   Hf   Mg   N                      '
_cell_length_a                         9.604919
_cell_length_b                         9.621022
_cell_length_c                         10.203223
_cell_angle_alpha                      89.989944
_cell_angle_beta                       89.644005
_cell_angle_gamma                      60.069099
_cell_volume                           817.097878
_space_group_name_H-M_alt              'P 1'
_space_group_IT_number                 1

loop_
_space_group_symop_operation_xyz
   'x, y, z'

loop_
   _atom_site_label
   _atom_site_occupancy
   _atom_site_fract_x
   _atom_site_fract_y
   _atom_site_fract_z
   _atom_site_adp_type
   _atom_site_U_iso_or_equiv
   _atom_site_type_symbol
   Al1        1.0     0.113968     0.095526     0.394536    Uiso  ? Al
   Al2        1.0     0.214928     0.207654     0.152593    Uiso  ? Al
   Al3        1.0     0.779224     0.104126     0.828265    Uiso  ? Al
   Al4        1.0     0.878419     0.213094     0.578098    Uiso  ? Al
   Al5        1.0     0.442677     0.093429     0.395899    Uiso  ? Al
   Al6        1.0     0.118488     0.093991     0.903821    Uiso  ? Al
   Al7        1.0     0.219638     0.211221     0.648816    Uiso  ? Al
   Al8        1.0     0.783611     0.094612     0.333733    Uiso  ? Al
   Al9        1.0     0.892425     0.204349     0.082234    Uiso  ? Al
   Al10       1.0     0.434763     0.092620     0.895972    Uiso  ? Al
   Al11       1.0     0.549921     0.210266     0.621725    Uiso  ? Al
   Al12       1.0     0.112263     0.427275     0.397555    Uiso  ? Al
   Al13       1.0     0.216006     0.541913     0.150804    Uiso  ? Al
   Al14       1.0     0.773982     0.430382     0.897367    Uiso  ? Al
   Al15       1.0     0.887610     0.535364     0.643338    Uiso  ? Al
   Al16       1.0     0.442050     0.431283     0.395273    Uiso  ? Al
   Al17       1.0     0.557097     0.544914     0.148484    Uiso  ? Al
   Al18       1.0     0.222194     0.535130     0.648922    Uiso  ? Al
   Al19       1.0     0.772034     0.436013     0.395663    Uiso  ? Al
   Al20       1.0     0.893884     0.532049     0.154708    Uiso  ? Al
   Al21       1.0     0.438275     0.439077     0.895983    Uiso  ? Al
   Al22       1.0     0.560568     0.533629     0.648219    Uiso  ? Al
   Al23       1.0     0.114343     0.755444     0.397511    Uiso  ? Al
   Al24       1.0     0.446497     0.758975     0.397189    Uiso  ? Al
   Al25       1.0     0.553857     0.865930     0.154187    Uiso  ? Al
   Al26       1.0     0.114072     0.759141     0.904990    Uiso  ? Al
   Al27       1.0     0.776852     0.758345     0.401800    Uiso  ? Al
   Al28       1.0     0.900871     0.857672     0.155980    Uiso  ? Al
   Al29       1.0     0.445249     0.757867     0.902743    Uiso  ? Al
   Al30       1.0     0.557016     0.871101     0.642532    Uiso  ? Al
   Hf1        1.0     0.554208     0.206128     0.117773    Uiso  ? Hf
   Hf2        1.0     0.778701     0.762690     0.895642    Uiso  ? Hf
   Hf3        1.0     0.220430     0.872953     0.643122    Uiso  ? Hf
   Mg1        1.0     0.116710     0.422643     0.898544    Uiso  ? Mg
   Mg2        1.0     0.223259     0.871162     0.149694    Uiso  ? Mg
   Mg3        1.0     0.887214     0.870026     0.634142    Uiso  ? Mg
   N1         1.0     0.223516     0.205134     0.341206    Uiso  ? N
   N2         1.0     0.111876     0.104196     0.090862    Uiso  ? N
   N3         1.0     0.888388     0.204639     0.888810    Uiso  ? N
   N4         1.0     0.767007     0.116255     0.640428    Uiso  ? N
   N5         1.0     0.551042     0.207560     0.340924    Uiso  ? N
   N6         1.0     0.434064     0.079932     0.087779    Uiso  ? N
   N7         1.0     0.228443     0.191415     0.831550    Uiso  ? N
   N8         1.0     0.104872     0.111788     0.586486    Uiso  ? N
   N9         1.0     0.884904     0.206648     0.385200    Uiso  ? N
   N10        1.0     0.799882     0.084725     0.142504    Uiso  ? N
   N11        1.0     0.554068     0.205438     0.879745    Uiso  ? N
   N12        1.0     0.443920     0.094179     0.586174    Uiso  ? N
   N13        1.0     0.224058     0.536842     0.339225    Uiso  ? N
   N14        1.0     0.113405     0.425645     0.103555    Uiso  ? N
   N15        1.0     0.882734     0.530936     0.830079    Uiso  ? N
   N16        1.0     0.771997     0.435796     0.585183    Uiso  ? N
   N17        1.0     0.553997     0.540118     0.337281    Uiso  ? N
   N18        1.0     0.433716     0.451993     0.086918    Uiso  ? N
   N19        1.0     0.228415     0.547877     0.833388    Uiso  ? N
   N20        1.0     0.111512     0.427437     0.588145    Uiso  ? N
   N21        1.0     0.889152     0.537938     0.342344    Uiso  ? N
   N22        1.0     0.775299     0.433289     0.091360    Uiso  ? N
   N23        1.0     0.556281     0.538461     0.836473    Uiso  ? N
   N24        1.0     0.443514     0.429407     0.585954    Uiso  ? N
   N25        1.0     0.223123     0.872254     0.360258    Uiso  ? N
   N26        1.0     0.106331     0.751189     0.089767    Uiso  ? N
   N27        1.0     0.899665     0.878755     0.844243    Uiso  ? N
   N28        1.0     0.770206     0.752548     0.588189    Uiso  ? N
   N29        1.0     0.555019     0.871970     0.341660    Uiso  ? N
   N30        1.0     0.461491     0.753073     0.086116    Uiso  ? N
   N31        1.0     0.224159     0.871112     0.850935    Uiso  ? N
   N32        1.0     0.119721     0.742906     0.581040    Uiso  ? N
   N33        1.0     0.891739     0.865171     0.347533    Uiso  ? N
   N34        1.0     0.778252     0.760127     0.102788    Uiso  ? N
   N35        1.0     0.541141     0.878277     0.831273    Uiso  ? N
   N36        1.0     0.459568     0.750984     0.586024    Uiso  ? N
