
#======================================================================
# CRYSTAL DATA
#----------------------------------------------------------------------
data_VESTA_phase_1

_chemical_name_common                  'Al   Hf   Mg   N                      '
_cell_length_a                         9.611834
_cell_length_b                         9.618635
_cell_length_c                         10.288346
_cell_angle_alpha                      89.953133
_cell_angle_beta                       89.887390
_cell_angle_gamma                      59.975651
_cell_volume                           823.547102
_space_group_name_H-M_alt              'P 1'
_space_group_IT_number                 1

loop_
_space_group_symop_operation_xyz
   'x, y, z'

loop_
   _atom_site_label
   _atom_site_occupancy
   _atom_site_fract_x
   _atom_site_fract_y
   _atom_site_fract_z
   _atom_site_adp_type
   _atom_site_U_iso_or_equiv
   _atom_site_type_symbol
   Al1        1.0     0.108282     0.101440     0.333389    Uiso  ? Al
   Al2        1.0     0.218935     0.199208     0.084672    Uiso  ? Al
   Al3        1.0     0.776183     0.105107     0.825298    Uiso  ? Al
   Al4        1.0     0.881921     0.214172     0.580908    Uiso  ? Al
   Al5        1.0     0.438413     0.094570     0.339306    Uiso  ? Al
   Al6        1.0     0.107954     0.102816     0.838043    Uiso  ? Al
   Al7        1.0     0.220619     0.209136     0.582731    Uiso  ? Al
   Al8        1.0     0.783425     0.093821     0.338968    Uiso  ? Al
   Al9        1.0     0.895122     0.207037     0.086487    Uiso  ? Al
   Al10       1.0     0.434788     0.102538     0.826143    Uiso  ? Al
   Al11       1.0     0.556945     0.203710     0.578500    Uiso  ? Al
   Al12       1.0     0.110642     0.433419     0.399170    Uiso  ? Al
   Al13       1.0     0.216262     0.540226     0.150070    Uiso  ? Al
   Al14       1.0     0.777588     0.422851     0.849477    Uiso  ? Al
   Al15       1.0     0.889320     0.538382     0.642221    Uiso  ? Al
   Al16       1.0     0.438694     0.436018     0.398955    Uiso  ? Al
   Al17       1.0     0.556218     0.543479     0.149753    Uiso  ? Al
   Al18       1.0     0.223715     0.534262     0.650610    Uiso  ? Al
   Al19       1.0     0.776750     0.427067     0.362776    Uiso  ? Al
   Al20       1.0     0.898123     0.529773     0.158642    Uiso  ? Al
   Al21       1.0     0.436662     0.442326     0.895672    Uiso  ? Al
   Al22       1.0     0.556255     0.533229     0.646003    Uiso  ? Al
   Al23       1.0     0.112787     0.755295     0.399175    Uiso  ? Al
   Al24       1.0     0.448453     0.757513     0.400957    Uiso  ? Al
   Al25       1.0     0.558429     0.858336     0.159864    Uiso  ? Al
   Al26       1.0     0.113105     0.762174     0.902672    Uiso  ? Al
   Al27       1.0     0.778025     0.757805     0.404917    Uiso  ? Al
   Al28       1.0     0.900770     0.859378     0.158395    Uiso  ? Al
   Al29       1.0     0.441899     0.762057     0.901173    Uiso  ? Al
   Al30       1.0     0.560458     0.865840     0.644246    Uiso  ? Al
   Hf1        1.0     0.558333     0.199998     0.094125    Uiso  ? Hf
   Hf2        1.0     0.777856     0.762443     0.900499    Uiso  ? Hf
   Hf3        1.0     0.220521     0.871693     0.629918    Uiso  ? Hf
   Mg1        1.0     0.115460     0.428641     0.897065    Uiso  ? Mg
   Mg2        1.0     0.226094     0.865329     0.146966    Uiso  ? Mg
   Mg3        1.0     0.886268     0.871366     0.638010    Uiso  ? Mg
   N1         1.0     0.223856     0.201117     0.396586    Uiso  ? N
   N2         1.0     0.102532     0.109810     0.150315    Uiso  ? N
   N3         1.0     0.888521     0.204839     0.896420    Uiso  ? N
   N4         1.0     0.765289     0.119037     0.641503    Uiso  ? N
   N5         1.0     0.557975     0.200326     0.382800    Uiso  ? N
   N6         1.0     0.433826     0.087788     0.151004    Uiso  ? N
   N7         1.0     0.234008     0.183619     0.899444    Uiso  ? N
   N8         1.0     0.095054     0.123173     0.648283    Uiso  ? N
   N9         1.0     0.890703     0.202219     0.395447    Uiso  ? N
   N10        1.0     0.795609     0.089365     0.149801    Uiso  ? N
   N11        1.0     0.555760     0.201661     0.888507    Uiso  ? N
   N12        1.0     0.440664     0.101243     0.637354    Uiso  ? N
   N13        1.0     0.224314     0.537252     0.337115    Uiso  ? N
   N14        1.0     0.113032     0.426383     0.103736    Uiso  ? N
   N15        1.0     0.886319     0.532928     0.830080    Uiso  ? N
   N16        1.0     0.774156     0.432097     0.610124    Uiso  ? N
   N17        1.0     0.549199     0.541363     0.339388    Uiso  ? N
   N18        1.0     0.434594     0.449071     0.087740    Uiso  ? N
   N19        1.0     0.228214     0.548685     0.833659    Uiso  ? N
   N20        1.0     0.108834     0.435163     0.589522    Uiso  ? N
   N21        1.0     0.891860     0.538754     0.346330    Uiso  ? N
   N22        1.0     0.779041     0.425552     0.130315    Uiso  ? N
   N23        1.0     0.552564     0.540215     0.835920    Uiso  ? N
   N24        1.0     0.440337     0.432561     0.586072    Uiso  ? N
   N25        1.0     0.221916     0.874418     0.371945    Uiso  ? N
   N26        1.0     0.105406     0.751872     0.087841    Uiso  ? N
   N27        1.0     0.896063     0.880588     0.846271    Uiso  ? N
   N28        1.0     0.770669     0.754892     0.588176    Uiso  ? N
   N29        1.0     0.559322     0.863516     0.346453    Uiso  ? N
   N30        1.0     0.461348     0.753338     0.084496    Uiso  ? N
   N31        1.0     0.223477     0.869665     0.841920    Uiso  ? N
   N32        1.0     0.116162     0.741816     0.581133    Uiso  ? N
   N33        1.0     0.892753     0.863746     0.347379    Uiso  ? N
   N34        1.0     0.778473     0.760542     0.105779    Uiso  ? N
   N35        1.0     0.544347     0.873224     0.832474    Uiso  ? N
   N36        1.0     0.462281     0.749658     0.586533    Uiso  ? N
