
#======================================================================
# CRYSTAL DATA
#----------------------------------------------------------------------
data_VESTA_phase_1

_chemical_name_common                  'Al   Hf   Mg   N                      '
_cell_length_a                         9.616760
_cell_length_b                         9.634374
_cell_length_c                         10.179997
_cell_angle_alpha                      89.908249
_cell_angle_beta                       89.615173
_cell_angle_gamma                      60.013420
_cell_volume                           816.918257
_space_group_name_H-M_alt              'P 1'
_space_group_IT_number                 1

loop_
_space_group_symop_operation_xyz
   'x, y, z'

loop_
   _atom_site_label
   _atom_site_occupancy
   _atom_site_fract_x
   _atom_site_fract_y
   _atom_site_fract_z
   _atom_site_adp_type
   _atom_site_U_iso_or_equiv
   _atom_site_type_symbol
   Al1        1.0     0.113086     0.094975     0.388531    Uiso  ? Al
   Al2        1.0     0.214068     0.208886     0.151708    Uiso  ? Al
   Al3        1.0     0.775032     0.106976     0.826076    Uiso  ? Al
   Al4        1.0     0.880619     0.212477     0.577942    Uiso  ? Al
   Al5        1.0     0.439000     0.089726     0.395713    Uiso  ? Al
   Al6        1.0     0.117849     0.094036     0.905273    Uiso  ? Al
   Al7        1.0     0.221176     0.209997     0.649988    Uiso  ? Al
   Al8        1.0     0.784806     0.093338     0.336426    Uiso  ? Al
   Al9        1.0     0.891136     0.204238     0.084491    Uiso  ? Al
   Al10       1.0     0.435989     0.092826     0.897182    Uiso  ? Al
   Al11       1.0     0.556507     0.207071     0.580049    Uiso  ? Al
   Al12       1.0     0.112042     0.427055     0.398501    Uiso  ? Al
   Al13       1.0     0.214317     0.542912     0.150271    Uiso  ? Al
   Al14       1.0     0.774801     0.429530     0.898050    Uiso  ? Al
   Al15       1.0     0.888099     0.534718     0.643618    Uiso  ? Al
   Al16       1.0     0.438586     0.438475     0.394417    Uiso  ? Al
   Al17       1.0     0.557520     0.545263     0.148419    Uiso  ? Al
   Al18       1.0     0.224173     0.534039     0.648869    Uiso  ? Al
   Al19       1.0     0.772411     0.436013     0.395511    Uiso  ? Al
   Al20       1.0     0.893584     0.532614     0.154457    Uiso  ? Al
   Al21       1.0     0.439247     0.438603     0.896960    Uiso  ? Al
   Al22       1.0     0.560998     0.532382     0.648066    Uiso  ? Al
   Al23       1.0     0.113755     0.755358     0.397724    Uiso  ? Al
   Al24       1.0     0.446481     0.758853     0.397548    Uiso  ? Al
   Al25       1.0     0.554108     0.865360     0.153890    Uiso  ? Al
   Al26       1.0     0.113316     0.760020     0.903962    Uiso  ? Al
   Al27       1.0     0.776888     0.757611     0.402682    Uiso  ? Al
   Al28       1.0     0.899522     0.858447     0.156576    Uiso  ? Al
   Al29       1.0     0.446172     0.757514     0.901963    Uiso  ? Al
   Al30       1.0     0.556617     0.871817     0.642824    Uiso  ? Al
   Hf1        1.0     0.554117     0.206332     0.113049    Uiso  ? Hf
   Hf2        1.0     0.779519     0.762986     0.894436    Uiso  ? Hf
   Hf3        1.0     0.220470     0.872940     0.642882    Uiso  ? Hf
   Mg1        1.0     0.116860     0.423472     0.897787    Uiso  ? Mg
   Mg2        1.0     0.224682     0.868323     0.147503    Uiso  ? Mg
   Mg3        1.0     0.886856     0.871095     0.633364    Uiso  ? Mg
   N1         1.0     0.222431     0.206093     0.340173    Uiso  ? N
   N2         1.0     0.110443     0.103952     0.094634    Uiso  ? N
   N3         1.0     0.887782     0.203612     0.890124    Uiso  ? N
   N4         1.0     0.764438     0.118406     0.637744    Uiso  ? N
   N5         1.0     0.554322     0.205694     0.363111    Uiso  ? N
   N6         1.0     0.433215     0.080208     0.091180    Uiso  ? N
   N7         1.0     0.229067     0.191364     0.834013    Uiso  ? N
   N8         1.0     0.105647     0.111329     0.586809    Uiso  ? N
   N9         1.0     0.885344     0.206950     0.384097    Uiso  ? N
   N10        1.0     0.797274     0.086110     0.146865    Uiso  ? N
   N11        1.0     0.557870     0.203904     0.894930    Uiso  ? N
   N12        1.0     0.442953     0.092547     0.585330    Uiso  ? N
   N13        1.0     0.222484     0.537328     0.338706    Uiso  ? N
   N14        1.0     0.112594     0.426521     0.102778    Uiso  ? N
   N15        1.0     0.882819     0.530571     0.830642    Uiso  ? N
   N16        1.0     0.772780     0.435242     0.585142    Uiso  ? N
   N17        1.0     0.554489     0.541098     0.336950    Uiso  ? N
   N18        1.0     0.432589     0.453440     0.090300    Uiso  ? N
   N19        1.0     0.229608     0.547747     0.833901    Uiso  ? N
   N20        1.0     0.112404     0.426787     0.589198    Uiso  ? N
   N21        1.0     0.889316     0.537968     0.342614    Uiso  ? N
   N22        1.0     0.775540     0.433091     0.092275    Uiso  ? N
   N23        1.0     0.557134     0.537511     0.836978    Uiso  ? N
   N24        1.0     0.442920     0.432052     0.584218    Uiso  ? N
   N25        1.0     0.223444     0.870913     0.358879    Uiso  ? N
   N26        1.0     0.104301     0.752093     0.089135    Uiso  ? N
   N27        1.0     0.898864     0.880596     0.842934    Uiso  ? N
   N28        1.0     0.770321     0.752452     0.589361    Uiso  ? N
   N29        1.0     0.555385     0.870443     0.341416    Uiso  ? N
   N30        1.0     0.462405     0.752699     0.085410    Uiso  ? N
   N31        1.0     0.224483     0.871391     0.851698    Uiso  ? N
   N32        1.0     0.119734     0.742769     0.581388    Uiso  ? N
   N33        1.0     0.891609     0.864338     0.348635    Uiso  ? N
   N34        1.0     0.777895     0.760770     0.102309    Uiso  ? N
   N35        1.0     0.541460     0.878962     0.832061    Uiso  ? N
   N36        1.0     0.460015     0.750776     0.586616    Uiso  ? N
