
#======================================================================
# CRYSTAL DATA
#----------------------------------------------------------------------
data_VESTA_phase_1

_chemical_name_common                  'Al   Hf   Mg   N                      '
_cell_length_a                         9.634065
_cell_length_b                         9.658186
_cell_length_c                         10.166958
_cell_angle_alpha                      89.794182
_cell_angle_beta                       89.676315
_cell_angle_gamma                      60.024479
_cell_volume                           819.458089
_space_group_name_H-M_alt              'P 1'
_space_group_IT_number                 1

loop_
_space_group_symop_operation_xyz
   'x, y, z'

loop_
   _atom_site_label
   _atom_site_occupancy
   _atom_site_fract_x
   _atom_site_fract_y
   _atom_site_fract_z
   _atom_site_adp_type
   _atom_site_U_iso_or_equiv
   _atom_site_type_symbol
   Al1        1.0     0.108284     0.103216     0.332562    Uiso  ? Al
   Al2        1.0     0.210913     0.204524     0.080949    Uiso  ? Al
   Al3        1.0     0.773533     0.106315     0.828826    Uiso  ? Al
   Al4        1.0     0.883292     0.211703     0.581329    Uiso  ? Al
   Al5        1.0     0.442141     0.087450     0.397587    Uiso  ? Al
   Al6        1.0     0.104444     0.101674     0.835320    Uiso  ? Al
   Al7        1.0     0.218715     0.211943     0.598283    Uiso  ? Al
   Al8        1.0     0.787524     0.092501     0.338653    Uiso  ? Al
   Al9        1.0     0.896953     0.199378     0.083567    Uiso  ? Al
   Al10       1.0     0.442262     0.089648     0.895512    Uiso  ? Al
   Al11       1.0     0.558397     0.207432     0.582685    Uiso  ? Al
   Al12       1.0     0.110298     0.430833     0.398977    Uiso  ? Al
   Al13       1.0     0.214075     0.542060     0.148731    Uiso  ? Al
   Al14       1.0     0.773846     0.429696     0.900226    Uiso  ? Al
   Al15       1.0     0.886082     0.536660     0.644682    Uiso  ? Al
   Al16       1.0     0.439020     0.438186     0.394458    Uiso  ? Al
   Al17       1.0     0.558588     0.543833     0.147661    Uiso  ? Al
   Al18       1.0     0.225250     0.535085     0.650366    Uiso  ? Al
   Al19       1.0     0.774236     0.433814     0.397488    Uiso  ? Al
   Al20       1.0     0.895225     0.529533     0.155085    Uiso  ? Al
   Al21       1.0     0.439755     0.438231     0.898544    Uiso  ? Al
   Al22       1.0     0.562567     0.531049     0.649285    Uiso  ? Al
   Al23       1.0     0.112731     0.754648     0.397441    Uiso  ? Al
   Al24       1.0     0.450451     0.756873     0.397567    Uiso  ? Al
   Al25       1.0     0.554871     0.863799     0.154688    Uiso  ? Al
   Al26       1.0     0.114255     0.762448     0.901025    Uiso  ? Al
   Al27       1.0     0.778113     0.756884     0.402714    Uiso  ? Al
   Al28       1.0     0.899472     0.858811     0.155899    Uiso  ? Al
   Al29       1.0     0.442244     0.759579     0.899206    Uiso  ? Al
   Al30       1.0     0.559492     0.869439     0.644382    Uiso  ? Al
   Hf1        1.0     0.553551     0.205859     0.117553    Uiso  ? Hf
   Hf2        1.0     0.778845     0.762228     0.896794    Uiso  ? Hf
   Hf3        1.0     0.222869     0.870318     0.625236    Uiso  ? Hf
   Mg1        1.0     0.113021     0.432708     0.889888    Uiso  ? Mg
   Mg2        1.0     0.226694     0.864701     0.145114    Uiso  ? Mg
   Mg3        1.0     0.886445     0.871552     0.635830    Uiso  ? Mg
   N1         1.0     0.219193     0.205150     0.391605    Uiso  ? N
   N2         1.0     0.102230     0.108713     0.147047    Uiso  ? N
   N3         1.0     0.889306     0.201396     0.894152    Uiso  ? N
   N4         1.0     0.765305     0.118902     0.640616    Uiso  ? N
   N5         1.0     0.556006     0.204770     0.364716    Uiso  ? N
   N6         1.0     0.438696     0.076219     0.094271    Uiso  ? N
   N7         1.0     0.224221     0.193103     0.882604    Uiso  ? N
   N8         1.0     0.093720     0.120136     0.645188    Uiso  ? N
   N9         1.0     0.890758     0.202697     0.392392    Uiso  ? N
   N10        1.0     0.797253     0.086626     0.148052    Uiso  ? N
   N11        1.0     0.558001     0.204369     0.896259    Uiso  ? N
   N12        1.0     0.449262     0.089931     0.592416    Uiso  ? N
   N13        1.0     0.222789     0.537600     0.337812    Uiso  ? N
   N14        1.0     0.111560     0.427801     0.100790    Uiso  ? N
   N15        1.0     0.879546     0.531699     0.831207    Uiso  ? N
   N16        1.0     0.773310     0.434988     0.586298    Uiso  ? N
   N17        1.0     0.556057     0.539759     0.336694    Uiso  ? N
   N18        1.0     0.432816     0.452530     0.091438    Uiso  ? N
   N19        1.0     0.231243     0.549370     0.834472    Uiso  ? N
   N20        1.0     0.108317     0.435558     0.593788    Uiso  ? N
   N21        1.0     0.889383     0.537270     0.343195    Uiso  ? N
   N22        1.0     0.776738     0.430680     0.092557    Uiso  ? N
   N23        1.0     0.557356     0.536861     0.838182    Uiso  ? N
   N24        1.0     0.443176     0.432190     0.584479    Uiso  ? N
   N25        1.0     0.223033     0.874074     0.371882    Uiso  ? N
   N26        1.0     0.104786     0.752715     0.088200    Uiso  ? N
   N27        1.0     0.897217     0.880454     0.845393    Uiso  ? N
   N28        1.0     0.771263     0.752955     0.589289    Uiso  ? N
   N29        1.0     0.556574     0.869691     0.342229    Uiso  ? N
   N30        1.0     0.461581     0.752468     0.084644    Uiso  ? N
   N31        1.0     0.224875     0.869429     0.840833    Uiso  ? N
   N32        1.0     0.117137     0.741294     0.581154    Uiso  ? N
   N33        1.0     0.892231     0.863720     0.348078    Uiso  ? N
   N34        1.0     0.778614     0.759002     0.104201    Uiso  ? N
   N35        1.0     0.541904     0.877866     0.832446    Uiso  ? N
   N36        1.0     0.465874     0.747413     0.586370    Uiso  ? N
