
#======================================================================
# CRYSTAL DATA
#----------------------------------------------------------------------
data_VESTA_phase_1

_chemical_name_common                  'Al   Hf   Mg   N                      '
_cell_length_a                         9.636070
_cell_length_b                         9.658174
_cell_length_c                         10.154673
_cell_angle_alpha                      89.753876
_cell_angle_beta                       89.654190
_cell_angle_gamma                      60.000107
_cell_volume                           818.433893
_space_group_name_H-M_alt              'P 1'
_space_group_IT_number                 1

loop_
_space_group_symop_operation_xyz
   'x, y, z'

loop_
   _atom_site_label
   _atom_site_occupancy
   _atom_site_fract_x
   _atom_site_fract_y
   _atom_site_fract_z
   _atom_site_adp_type
   _atom_site_U_iso_or_equiv
   _atom_site_type_symbol
   Al1        1.0     0.107459     0.101669     0.332794    Uiso  ? Al
   Al2        1.0     0.213681     0.208002     0.118713    Uiso  ? Al
   Al3        1.0     0.773191     0.106557     0.828368    Uiso  ? Al
   Al4        1.0     0.883207     0.211595     0.580730    Uiso  ? Al
   Al5        1.0     0.437834     0.089601     0.398914    Uiso  ? Al
   Al6        1.0     0.103907     0.100183     0.835930    Uiso  ? Al
   Al7        1.0     0.223002     0.213932     0.644901    Uiso  ? Al
   Al8        1.0     0.786937     0.092690     0.338765    Uiso  ? Al
   Al9        1.0     0.895982     0.199681     0.082633    Uiso  ? Al
   Al10       1.0     0.440126     0.090978     0.895665    Uiso  ? Al
   Al11       1.0     0.557938     0.207292     0.581318    Uiso  ? Al
   Al12       1.0     0.113024     0.425880     0.400752    Uiso  ? Al
   Al13       1.0     0.214237     0.542423     0.149254    Uiso  ? Al
   Al14       1.0     0.773759     0.430109     0.899773    Uiso  ? Al
   Al15       1.0     0.886722     0.535955     0.644146    Uiso  ? Al
   Al16       1.0     0.438830     0.438228     0.394294    Uiso  ? Al
   Al17       1.0     0.558775     0.543720     0.147785    Uiso  ? Al
   Al18       1.0     0.225070     0.535019     0.650026    Uiso  ? Al
   Al19       1.0     0.774356     0.433995     0.397315    Uiso  ? Al
   Al20       1.0     0.894097     0.530519     0.155254    Uiso  ? Al
   Al21       1.0     0.439754     0.438139     0.898160    Uiso  ? Al
   Al22       1.0     0.562485     0.531103     0.648990    Uiso  ? Al
   Al23       1.0     0.112578     0.754033     0.397376    Uiso  ? Al
   Al24       1.0     0.450704     0.757041     0.397369    Uiso  ? Al
   Al25       1.0     0.554413     0.863903     0.154403    Uiso  ? Al
   Al26       1.0     0.114303     0.762262     0.900768    Uiso  ? Al
   Al27       1.0     0.778085     0.756948     0.402519    Uiso  ? Al
   Al28       1.0     0.899319     0.858997     0.155839    Uiso  ? Al
   Al29       1.0     0.442674     0.759404     0.898977    Uiso  ? Al
   Al30       1.0     0.559171     0.869741     0.643991    Uiso  ? Al
   Hf1        1.0     0.553453     0.205857     0.117294    Uiso  ? Hf
   Hf2        1.0     0.779127     0.762213     0.896014    Uiso  ? Hf
   Hf3        1.0     0.222551     0.870758     0.624212    Uiso  ? Hf
   Mg1        1.0     0.113994     0.430815     0.892610    Uiso  ? Mg
   Mg2        1.0     0.227023     0.863411     0.144589    Uiso  ? Mg
   Mg3        1.0     0.886328     0.871870     0.635564    Uiso  ? Mg
   N1         1.0     0.222233     0.207235     0.360826    Uiso  ? N
   N2         1.0     0.100882     0.105782     0.143730    Uiso  ? N
   N3         1.0     0.889011     0.201956     0.893619    Uiso  ? N
   N4         1.0     0.764530     0.119115     0.640118    Uiso  ? N
   N5         1.0     0.555979     0.204664     0.364821    Uiso  ? N
   N6         1.0     0.435682     0.077108     0.089925    Uiso  ? N
   N7         1.0     0.229255     0.196398     0.847339    Uiso  ? N
   N8         1.0     0.092437     0.118683     0.642539    Uiso  ? N
   N9         1.0     0.890307     0.203010     0.391537    Uiso  ? N
   N10        1.0     0.796583     0.086870     0.147672    Uiso  ? N
   N11        1.0     0.558294     0.204311     0.896769    Uiso  ? N
   N12        1.0     0.446265     0.091215     0.590810    Uiso  ? N
   N13        1.0     0.222494     0.537326     0.337993    Uiso  ? N
   N14        1.0     0.111144     0.428246     0.098726    Uiso  ? N
   N15        1.0     0.880352     0.531261     0.831186    Uiso  ? N
   N16        1.0     0.773225     0.434973     0.586220    Uiso  ? N
   N17        1.0     0.556046     0.539849     0.336685    Uiso  ? N
   N18        1.0     0.433062     0.452190     0.091603    Uiso  ? N
   N19        1.0     0.230936     0.549240     0.834590    Uiso  ? N
   N20        1.0     0.110729     0.431233     0.593106    Uiso  ? N
   N21        1.0     0.890121     0.536996     0.343367    Uiso  ? N
   N22        1.0     0.776804     0.430789     0.092444    Uiso  ? N
   N23        1.0     0.557304     0.536894     0.838163    Uiso  ? N
   N24        1.0     0.443092     0.432250     0.584552    Uiso  ? N
   N25        1.0     0.223077     0.873520     0.371743    Uiso  ? N
   N26        1.0     0.104569     0.752311     0.088121    Uiso  ? N
   N27        1.0     0.897344     0.880827     0.845348    Uiso  ? N
   N28        1.0     0.771455     0.752860     0.589442    Uiso  ? N
   N29        1.0     0.556218     0.870631     0.341926    Uiso  ? N
   N30        1.0     0.461707     0.752253     0.084662    Uiso  ? N
   N31        1.0     0.225172     0.869531     0.841547    Uiso  ? N
   N32        1.0     0.116830     0.741144     0.581201    Uiso  ? N
   N33        1.0     0.892158     0.863892     0.347925    Uiso  ? N
   N34        1.0     0.778147     0.759570     0.103907    Uiso  ? N
   N35        1.0     0.542183     0.877869     0.832649    Uiso  ? N
   N36        1.0     0.466059     0.747484     0.586241    Uiso  ? N
