
#======================================================================
# CRYSTAL DATA
#----------------------------------------------------------------------
data_VESTA_phase_1

_chemical_name_common                  'Al   Hf   Mg   N                      '
_cell_length_a                         9.623847
_cell_length_b                         9.614575
_cell_length_c                         10.299835
_cell_angle_alpha                      90.062019
_cell_angle_beta                       89.989410
_cell_angle_gamma                      59.933483
_cell_volume                           824.798448
_space_group_name_H-M_alt              'P 1'
_space_group_IT_number                 1

loop_
_space_group_symop_operation_xyz
   'x, y, z'

loop_
   _atom_site_label
   _atom_site_occupancy
   _atom_site_fract_x
   _atom_site_fract_y
   _atom_site_fract_z
   _atom_site_adp_type
   _atom_site_U_iso_or_equiv
   _atom_site_type_symbol
   Al1        1.0     0.107354     0.101213     0.336089    Uiso  ? Al
   Al2        1.0     0.217440     0.201065     0.084900    Uiso  ? Al
   Al3        1.0     0.777554     0.105634     0.824727    Uiso  ? Al
   Al4        1.0     0.881522     0.217654     0.583522    Uiso  ? Al
   Al5        1.0     0.438138     0.095214     0.341226    Uiso  ? Al
   Al6        1.0     0.107654     0.102672     0.838394    Uiso  ? Al
   Al7        1.0     0.217113     0.216887     0.581460    Uiso  ? Al
   Al8        1.0     0.783129     0.095542     0.341824    Uiso  ? Al
   Al9        1.0     0.895453     0.204689     0.085229    Uiso  ? Al
   Al10       1.0     0.432681     0.103268     0.825378    Uiso  ? Al
   Al11       1.0     0.557165     0.203282     0.579136    Uiso  ? Al
   Al12       1.0     0.110390     0.423724     0.332794    Uiso  ? Al
   Al13       1.0     0.219383     0.543912     0.148450    Uiso  ? Al
   Al14       1.0     0.782070     0.423544     0.835119    Uiso  ? Al
   Al15       1.0     0.894115     0.531440     0.582864    Uiso  ? Al
   Al16       1.0     0.439507     0.436062     0.400046    Uiso  ? Al
   Al17       1.0     0.552209     0.544789     0.149982    Uiso  ? Al
   Al18       1.0     0.225963     0.535043     0.652462    Uiso  ? Al
   Al19       1.0     0.782247     0.423906     0.332446    Uiso  ? Al
   Al20       1.0     0.892240     0.527471     0.093420    Uiso  ? Al
   Al21       1.0     0.438157     0.441311     0.896685    Uiso  ? Al
   Al22       1.0     0.556719     0.533330     0.651259    Uiso  ? Al
   Al23       1.0     0.113819     0.753286     0.400437    Uiso  ? Al
   Al24       1.0     0.449744     0.755255     0.401349    Uiso  ? Al
   Al25       1.0     0.556681     0.859983     0.161194    Uiso  ? Al
   Al26       1.0     0.113843     0.762661     0.902729    Uiso  ? Al
   Al27       1.0     0.775941     0.761901     0.404663    Uiso  ? Al
   Al28       1.0     0.900558     0.860418     0.160434    Uiso  ? Al
   Al29       1.0     0.442129     0.760481     0.901702    Uiso  ? Al
   Al30       1.0     0.559213     0.866385     0.644088    Uiso  ? Al
   Hf1        1.0     0.559540     0.197170     0.094059    Uiso  ? Hf
   Hf2        1.0     0.772604     0.771886     0.899279    Uiso  ? Hf
   Hf3        1.0     0.222413     0.870684     0.630497    Uiso  ? Hf
   Mg1        1.0     0.112295     0.422546     0.842473    Uiso  ? Mg
   Mg2        1.0     0.225513     0.866816     0.147749    Uiso  ? Mg
   Mg3        1.0     0.888157     0.870886     0.638428    Uiso  ? Mg
   N1         1.0     0.221444     0.206150     0.395931    Uiso  ? N
   N2         1.0     0.101512     0.110922     0.151791    Uiso  ? N
   N3         1.0     0.887763     0.206230     0.897332    Uiso  ? N
   N4         1.0     0.765813     0.119912     0.640782    Uiso  ? N
   N5         1.0     0.558027     0.200027     0.383879    Uiso  ? N
   N6         1.0     0.431660     0.089428     0.152481    Uiso  ? N
   N7         1.0     0.231456     0.188022     0.901779    Uiso  ? N
   N8         1.0     0.097116     0.121261     0.646568    Uiso  ? N
   N9         1.0     0.887645     0.208148     0.397995    Uiso  ? N
   N10        1.0     0.795701     0.090460     0.152261    Uiso  ? N
   N11        1.0     0.557119     0.198682     0.888680    Uiso  ? N
   N12        1.0     0.439665     0.101593     0.636052    Uiso  ? N
   N13        1.0     0.226980     0.538575     0.335848    Uiso  ? N
   N14        1.0     0.111911     0.422088     0.141977    Uiso  ? N
   N15        1.0     0.882181     0.527854     0.905893    Uiso  ? N
   N16        1.0     0.783182     0.429101     0.645819    Uiso  ? N
   N17        1.0     0.549946     0.540413     0.338825    Uiso  ? N
   N18        1.0     0.435837     0.446407     0.087632    Uiso  ? N
   N19        1.0     0.230588     0.550398     0.837400    Uiso  ? N
   N20        1.0     0.109125     0.429199     0.634081    Uiso  ? N
   N21        1.0     0.891596     0.532193     0.386716    Uiso  ? N
   N22        1.0     0.780330     0.422145     0.145166    Uiso  ? N
   N23        1.0     0.552015     0.540341     0.839567    Uiso  ? N
   N24        1.0     0.442571     0.432468     0.587002    Uiso  ? N
   N25        1.0     0.222091     0.874491     0.373175    Uiso  ? N
   N26        1.0     0.104166     0.753527     0.087742    Uiso  ? N
   N27        1.0     0.899177     0.881161     0.844816    Uiso  ? N
   N28        1.0     0.769435     0.757592     0.591105    Uiso  ? N
   N29        1.0     0.558303     0.864150     0.347332    Uiso  ? N
   N30        1.0     0.461207     0.753489     0.085394    Uiso  ? N
   N31        1.0     0.223842     0.870667     0.842678    Uiso  ? N
   N32        1.0     0.117522     0.740810     0.581458    Uiso  ? N
   N33        1.0     0.893272     0.864101     0.348638    Uiso  ? N
   N34        1.0     0.773921     0.769072     0.105753    Uiso  ? N
   N35        1.0     0.540014     0.874353     0.831445    Uiso  ? N
   N36        1.0     0.464959     0.746510     0.586328    Uiso  ? N
