
#======================================================================
# CRYSTAL DATA
#----------------------------------------------------------------------
data_VESTA_phase_1

_chemical_name_common                  'Al   Hf   Mg   N                      '
_cell_length_a                         9.597893
_cell_length_b                         9.643538
_cell_length_c                         10.276328
_cell_angle_alpha                      90.350899
_cell_angle_beta                       90.212715
_cell_angle_gamma                      59.991203
_cell_volume                           823.633667
_space_group_name_H-M_alt              'P 1'
_space_group_IT_number                 1

loop_
_space_group_symop_operation_xyz
   'x, y, z'

loop_
   _atom_site_label
   _atom_site_occupancy
   _atom_site_fract_x
   _atom_site_fract_y
   _atom_site_fract_z
   _atom_site_adp_type
   _atom_site_U_iso_or_equiv
   _atom_site_type_symbol
   Al1        1.0     0.108099     0.101085     0.329706    Uiso  ? Al
   Al2        1.0     0.215720     0.202416     0.079538    Uiso  ? Al
   Al3        1.0     0.778029     0.104432     0.818798    Uiso  ? Al
   Al4        1.0     0.882615     0.217501     0.577517    Uiso  ? Al
   Al5        1.0     0.441066     0.091150     0.331757    Uiso  ? Al
   Al6        1.0     0.107792     0.103330     0.833448    Uiso  ? Al
   Al7        1.0     0.218394     0.215077     0.576344    Uiso  ? Al
   Al8        1.0     0.781932     0.097040     0.334193    Uiso  ? Al
   Al9        1.0     0.895034     0.206093     0.078853    Uiso  ? Al
   Al10       1.0     0.436916     0.097255     0.824283    Uiso  ? Al
   Al11       1.0     0.555517     0.204980     0.575357    Uiso  ? Al
   Al12       1.0     0.110968     0.422904     0.328701    Uiso  ? Al
   Al13       1.0     0.218599     0.542677     0.143009    Uiso  ? Al
   Al14       1.0     0.783727     0.422327     0.828691    Uiso  ? Al
   Al15       1.0     0.892212     0.534740     0.573196    Uiso  ? Al
   Al16       1.0     0.439930     0.434837     0.395061    Uiso  ? Al
   Al17       1.0     0.552856     0.542657     0.146503    Uiso  ? Al
   Al18       1.0     0.224305     0.536685     0.645549    Uiso  ? Al
   Al19       1.0     0.783407     0.422596     0.327275    Uiso  ? Al
   Al20       1.0     0.889428     0.531213     0.083058    Uiso  ? Al
   Al21       1.0     0.437324     0.442669     0.889297    Uiso  ? Al
   Al22       1.0     0.557710     0.534262     0.644798    Uiso  ? Al
   Al23       1.0     0.115358     0.752881     0.391938    Uiso  ? Al
   Al24       1.0     0.447373     0.754251     0.392558    Uiso  ? Al
   Al25       1.0     0.554637     0.869142     0.082512    Uiso  ? Al
   Al26       1.0     0.111867     0.764031     0.898627    Uiso  ? Al
   Al27       1.0     0.775406     0.755310     0.327256    Uiso  ? Al
   Al28       1.0     0.899781     0.863076     0.145960    Uiso  ? Al
   Al29       1.0     0.439796     0.757009     0.900258    Uiso  ? Al
   Al30       1.0     0.561826     0.873418     0.572067    Uiso  ? Al
   Hf1        1.0     0.558113     0.198730     0.085046    Uiso  ? Hf
   Hf2        1.0     0.779088     0.759335     0.833437    Uiso  ? Hf
   Hf3        1.0     0.223631     0.869615     0.627371    Uiso  ? Hf
   Mg1        1.0     0.113761     0.420848     0.834866    Uiso  ? Mg
   Mg2        1.0     0.224475     0.866618     0.145159    Uiso  ? Mg
   Mg3        1.0     0.882951     0.877908     0.603116    Uiso  ? Mg
   N1         1.0     0.223116     0.205291     0.389819    Uiso  ? N
   N2         1.0     0.101746     0.110098     0.145238    Uiso  ? N
   N3         1.0     0.887554     0.207457     0.890590    Uiso  ? N
   N4         1.0     0.766374     0.119541     0.633739    Uiso  ? N
   N5         1.0     0.556923     0.201044     0.378090    Uiso  ? N
   N6         1.0     0.435140     0.083891     0.145701    Uiso  ? N
   N7         1.0     0.230398     0.190516     0.895570    Uiso  ? N
   N8         1.0     0.098658     0.119683     0.640743    Uiso  ? N
   N9         1.0     0.888494     0.208086     0.391650    Uiso  ? N
   N10        1.0     0.794429     0.091348     0.144277    Uiso  ? N
   N11        1.0     0.554761     0.204992     0.879759    Uiso  ? N
   N12        1.0     0.444237     0.093719     0.634542    Uiso  ? N
   N13        1.0     0.227055     0.538069     0.330604    Uiso  ? N
   N14        1.0     0.110356     0.421489     0.137834    Uiso  ? N
   N15        1.0     0.882551     0.528492     0.900803    Uiso  ? N
   N16        1.0     0.784544     0.428265     0.638205    Uiso  ? N
   N17        1.0     0.551394     0.538997     0.335066    Uiso  ? N
   N18        1.0     0.435159     0.445635     0.081986    Uiso  ? N
   N19        1.0     0.228079     0.553298     0.830746    Uiso  ? N
   N20        1.0     0.109464     0.428624     0.625346    Uiso  ? N
   N21        1.0     0.888201     0.537160     0.384300    Uiso  ? N
   N22        1.0     0.781428     0.421588     0.140096    Uiso  ? N
   N23        1.0     0.552800     0.541824     0.833212    Uiso  ? N
   N24        1.0     0.442305     0.432355     0.582441    Uiso  ? N
   N25        1.0     0.221832     0.874900     0.364561    Uiso  ? N
   N26        1.0     0.106045     0.751481     0.083228    Uiso  ? N
   N27        1.0     0.896152     0.885811     0.849481    Uiso  ? N
   N28        1.0     0.770539     0.750642     0.631173    Uiso  ? N
   N29        1.0     0.558682     0.873756     0.384278    Uiso  ? N
   N30        1.0     0.455539     0.747853     0.084679    Uiso  ? N
   N31        1.0     0.224013     0.871593     0.837979    Uiso  ? N
   N32        1.0     0.118057     0.740903     0.573716    Uiso  ? N
   N33        1.0     0.893078     0.867475     0.344816    Uiso  ? N
   N34        1.0     0.775059     0.757512     0.135656    Uiso  ? N
   N35        1.0     0.541604     0.886285     0.891651    Uiso  ? N
   N36        1.0     0.464370     0.745213     0.581316    Uiso  ? N
