
#======================================================================
# CRYSTAL DATA
#----------------------------------------------------------------------
data_VESTA_phase_1

_chemical_name_common                  'Al   Hf   Mg   N                      '
_cell_length_a                         9.610889
_cell_length_b                         9.638423
_cell_length_c                         10.092799
_cell_angle_alpha                      90.041306
_cell_angle_beta                       89.724060
_cell_angle_gamma                      59.971733
_cell_volume                           809.431639
_space_group_name_H-M_alt              'P 1'
_space_group_IT_number                 1

loop_
_space_group_symop_operation_xyz
   'x, y, z'

loop_
   _atom_site_label
   _atom_site_occupancy
   _atom_site_fract_x
   _atom_site_fract_y
   _atom_site_fract_z
   _atom_site_adp_type
   _atom_site_U_iso_or_equiv
   _atom_site_type_symbol
   Al1        1.0     0.110075     0.099637     0.400242    Uiso  ? Al
   Al2        1.0     0.216291     0.207265     0.154624    Uiso  ? Al
   Al3        1.0     0.779791     0.098041     0.836861    Uiso  ? Al
   Al4        1.0     0.884388     0.219868     0.648969    Uiso  ? Al
   Al5        1.0     0.442345     0.093746     0.404771    Uiso  ? Al
   Al6        1.0     0.108639     0.099231     0.907865    Uiso  ? Al
   Al7        1.0     0.219052     0.211599     0.652794    Uiso  ? Al
   Al8        1.0     0.780394     0.094849     0.375806    Uiso  ? Al
   Al9        1.0     0.895474     0.208058     0.154435    Uiso  ? Al
   Al10       1.0     0.432803     0.092817     0.897247    Uiso  ? Al
   Al11       1.0     0.546269     0.211587     0.650440    Uiso  ? Al
   Al12       1.0     0.113156     0.427031     0.401171    Uiso  ? Al
   Al13       1.0     0.217820     0.540848     0.154348    Uiso  ? Al
   Al14       1.0     0.777166     0.424586     0.904320    Uiso  ? Al
   Al15       1.0     0.887784     0.535503     0.647940    Uiso  ? Al
   Al16       1.0     0.443019     0.430427     0.405312    Uiso  ? Al
   Al17       1.0     0.558298     0.542662     0.152700    Uiso  ? Al
   Al18       1.0     0.222065     0.535547     0.654185    Uiso  ? Al
   Al19       1.0     0.776618     0.429381     0.402964    Uiso  ? Al
   Al20       1.0     0.894322     0.532456     0.158604    Uiso  ? Al
   Al21       1.0     0.438303     0.438949     0.897741    Uiso  ? Al
   Al22       1.0     0.560441     0.533596     0.652780    Uiso  ? Al
   Al23       1.0     0.116270     0.754577     0.400908    Uiso  ? Al
   Al24       1.0     0.447431     0.758118     0.400600    Uiso  ? Al
   Al25       1.0     0.554488     0.866192     0.158055    Uiso  ? Al
   Al26       1.0     0.113955     0.759672     0.910081    Uiso  ? Al
   Al27       1.0     0.776721     0.757075     0.406371    Uiso  ? Al
   Al28       1.0     0.898385     0.862652     0.161156    Uiso  ? Al
   Al29       1.0     0.444091     0.757961     0.907297    Uiso  ? Al
   Al30       1.0     0.555847     0.871318     0.647118    Uiso  ? Al
   Hf1        1.0     0.556082     0.204743     0.134928    Uiso  ? Hf
   Hf2        1.0     0.778344     0.761786     0.898868    Uiso  ? Hf
   Hf3        1.0     0.219796     0.874422     0.645069    Uiso  ? Hf
   Mg1        1.0     0.116298     0.422865     0.902779    Uiso  ? Mg
   Mg2        1.0     0.222150     0.873206     0.153070    Uiso  ? Mg
   Mg3        1.0     0.888010     0.868961     0.634729    Uiso  ? Mg
   N1         1.0     0.225005     0.204424     0.345613    Uiso  ? N
   N2         1.0     0.104932     0.109173     0.093798    Uiso  ? N
   N3         1.0     0.891209     0.209980     0.842020    Uiso  ? N
   N4         1.0     0.767897     0.113044     0.622158    Uiso  ? N
   N5         1.0     0.551649     0.207200     0.348170    Uiso  ? N
   N6         1.0     0.436539     0.080544     0.089279    Uiso  ? N
   N7         1.0     0.224967     0.191757     0.837111    Uiso  ? N
   N8         1.0     0.099724     0.116008     0.588989    Uiso  ? N
   N9         1.0     0.890139     0.210181     0.346994    Uiso  ? N
   N10        1.0     0.797745     0.083287     0.129240    Uiso  ? N
   N11        1.0     0.548647     0.207580     0.855272    Uiso  ? N
   N12        1.0     0.443019     0.094670     0.594300    Uiso  ? N
   N13        1.0     0.226371     0.535559     0.344472    Uiso  ? N
   N14        1.0     0.114101     0.425635     0.108849    Uiso  ? N
   N15        1.0     0.882210     0.529952     0.836650    Uiso  ? N
   N16        1.0     0.774827     0.431097     0.590641    Uiso  ? N
   N17        1.0     0.555905     0.537438     0.343842    Uiso  ? N
   N18        1.0     0.437166     0.447373     0.089100    Uiso  ? N
   N19        1.0     0.226627     0.548854     0.839983    Uiso  ? N
   N20        1.0     0.111372     0.428055     0.593376    Uiso  ? N
   N21        1.0     0.889117     0.537345     0.348150    Uiso  ? N
   N22        1.0     0.778726     0.427072     0.095934    Uiso  ? N
   N23        1.0     0.557383     0.538160     0.842748    Uiso  ? N
   N24        1.0     0.443680     0.428212     0.595304    Uiso  ? N
   N25        1.0     0.222548     0.874299     0.366752    Uiso  ? N
   N26        1.0     0.106322     0.751390     0.096870    Uiso  ? N
   N27        1.0     0.900006     0.877512     0.846694    Uiso  ? N
   N28        1.0     0.769679     0.751797     0.594541    Uiso  ? N
   N29        1.0     0.554971     0.872966     0.347219    Uiso  ? N
   N30        1.0     0.461557     0.752393     0.092800    Uiso  ? N
   N31        1.0     0.221906     0.872963     0.855764    Uiso  ? N
   N32        1.0     0.121252     0.742112     0.585980    Uiso  ? N
   N33        1.0     0.890986     0.867022     0.355012    Uiso  ? N
   N34        1.0     0.779041     0.759350     0.107933    Uiso  ? N
   N35        1.0     0.540093     0.877492     0.836846    Uiso  ? N
   N36        1.0     0.460037     0.750132     0.590989    Uiso  ? N
