
#======================================================================
# CRYSTAL DATA
#----------------------------------------------------------------------
data_VESTA_phase_1

_chemical_name_common                  'Al   Hf   Mg   N                      '
_cell_length_a                         9.629727
_cell_length_b                         9.653421
_cell_length_c                         10.094862
_cell_angle_alpha                      89.816750
_cell_angle_beta                       89.867058
_cell_angle_gamma                      60.031616
_cell_volume                           812.946889
_space_group_name_H-M_alt              'P 1'
_space_group_IT_number                 1

loop_
_space_group_symop_operation_xyz
   'x, y, z'

loop_
   _atom_site_label
   _atom_site_occupancy
   _atom_site_fract_x
   _atom_site_fract_y
   _atom_site_fract_z
   _atom_site_adp_type
   _atom_site_U_iso_or_equiv
   _atom_site_type_symbol
   Al1        1.0     0.108749     0.098470     0.319021    Uiso  ? Al
   Al2        1.0     0.216218     0.204632     0.070281    Uiso  ? Al
   Al3        1.0     0.780416     0.100423     0.812928    Uiso  ? Al
   Al4        1.0     0.881345     0.215787     0.568810    Uiso  ? Al
   Al5        1.0     0.441563     0.090883     0.325535    Uiso  ? Al
   Al6        1.0     0.106728     0.102190     0.822396    Uiso  ? Al
   Al7        1.0     0.218153     0.214058     0.566800    Uiso  ? Al
   Al8        1.0     0.784535     0.092267     0.321993    Uiso  ? Al
   Al9        1.0     0.892470     0.209443     0.070000    Uiso  ? Al
   Al10       1.0     0.436072     0.094998     0.814869    Uiso  ? Al
   Al11       1.0     0.555354     0.207168     0.566739    Uiso  ? Al
   Al12       1.0     0.109492     0.424002     0.322319    Uiso  ? Al
   Al13       1.0     0.216416     0.544766     0.130463    Uiso  ? Al
   Al14       1.0     0.777085     0.424278     0.818226    Uiso  ? Al
   Al15       1.0     0.890560     0.535716     0.563651    Uiso  ? Al
   Al16       1.0     0.446693     0.430647     0.325775    Uiso  ? Al
   Al17       1.0     0.559463     0.541894     0.069287    Uiso  ? Al
   Al18       1.0     0.219761     0.536733     0.629632    Uiso  ? Al
   Al19       1.0     0.776916     0.427126     0.318732    Uiso  ? Al
   Al20       1.0     0.889894     0.532147     0.074973    Uiso  ? Al
   Al21       1.0     0.447609     0.429993     0.813928    Uiso  ? Al
   Al22       1.0     0.562795     0.532773     0.568294    Uiso  ? Al
   Al23       1.0     0.112813     0.754447     0.379655    Uiso  ? Al
   Al24       1.0     0.448799     0.758129     0.318976    Uiso  ? Al
   Al25       1.0     0.552149     0.868310     0.074391    Uiso  ? Al
   Al26       1.0     0.120038     0.756534     0.886998    Uiso  ? Al
   Al27       1.0     0.779046     0.760455     0.313720    Uiso  ? Al
   Al28       1.0     0.892739     0.872676     0.079953    Uiso  ? Al
   Al29       1.0     0.447013     0.755637     0.821698    Uiso  ? Al
   Al30       1.0     0.560189     0.868252     0.565038    Uiso  ? Al
   Hf1        1.0     0.554080     0.205138     0.075162    Uiso  ? Hf
   Hf2        1.0     0.779512     0.759216     0.827723    Uiso  ? Hf
   Hf3        1.0     0.222167     0.874776     0.595470    Uiso  ? Hf
   Mg1        1.0     0.112682     0.419066     0.825941    Uiso  ? Mg
   Mg2        1.0     0.226345     0.877659     0.086072    Uiso  ? Mg
   Mg3        1.0     0.875095     0.879698     0.565135    Uiso  ? Mg
   N1         1.0     0.222442     0.204225     0.378209    Uiso  ? N
   N2         1.0     0.100835     0.111338     0.132960    Uiso  ? N
   N3         1.0     0.886488     0.207914     0.879430    Uiso  ? N
   N4         1.0     0.769646     0.111933     0.626736    Uiso  ? N
   N5         1.0     0.556091     0.204190     0.370175    Uiso  ? N
   N6         1.0     0.435776     0.085047     0.135215    Uiso  ? N
   N7         1.0     0.230199     0.188521     0.884258    Uiso  ? N
   N8         1.0     0.095753     0.121586     0.630938    Uiso  ? N
   N9         1.0     0.887938     0.207621     0.379317    Uiso  ? N
   N10        1.0     0.791957     0.091975     0.130992    Uiso  ? N
   N11        1.0     0.553427     0.204938     0.868145    Uiso  ? N
   N12        1.0     0.444178     0.091836     0.623188    Uiso  ? N
   N13        1.0     0.221639     0.538731     0.331607    Uiso  ? N
   N14        1.0     0.110769     0.422902     0.126732    Uiso  ? N
   N15        1.0     0.880873     0.527427     0.888737    Uiso  ? N
   N16        1.0     0.777928     0.429985     0.627425    Uiso  ? N
   N17        1.0     0.557274     0.538444     0.379582    Uiso  ? N
   N18        1.0     0.444958     0.440206     0.130338    Uiso  ? N
   N19        1.0     0.226990     0.547121     0.829981    Uiso  ? N
   N20        1.0     0.107673     0.427564     0.613475    Uiso  ? N
   N21        1.0     0.886113     0.539509     0.371460    Uiso  ? N
   N22        1.0     0.775936     0.425940     0.130058    Uiso  ? N
   N23        1.0     0.557022     0.536359     0.878110    Uiso  ? N
   N24        1.0     0.450431     0.424403     0.620833    Uiso  ? N
   N25        1.0     0.226189     0.876070     0.373388    Uiso  ? N
   N26        1.0     0.112477     0.752256     0.077317    Uiso  ? N
   N27        1.0     0.889296     0.889225     0.880385    Uiso  ? N
   N28        1.0     0.772337     0.751282     0.624201    Uiso  ? N
   N29        1.0     0.558397     0.870049     0.376297    Uiso  ? N
   N30        1.0     0.461770     0.750324     0.132346    Uiso  ? N
   N31        1.0     0.220951     0.874147     0.837859    Uiso  ? N
   N32        1.0     0.114706     0.743659     0.571544    Uiso  ? N
   N33        1.0     0.887396     0.872061     0.355580    Uiso  ? N
   N34        1.0     0.777250     0.761484     0.118719    Uiso  ? N
   N35        1.0     0.539164     0.879561     0.883288    Uiso  ? N
   N36        1.0     0.467777     0.747125     0.630770    Uiso  ? N
