
#======================================================================
# CRYSTAL DATA
#----------------------------------------------------------------------
data_VESTA_phase_1

_chemical_name_common                  'Al   Hf   Mg   N                      '
_cell_length_a                         9.615895
_cell_length_b                         9.634206
_cell_length_c                         10.225147
_cell_angle_alpha                      89.970276
_cell_angle_beta                       89.792152
_cell_angle_gamma                      60.086002
_cell_volume                           821.066293
_space_group_name_H-M_alt              'P 1'
_space_group_IT_number                 1

loop_
_space_group_symop_operation_xyz
   'x, y, z'

loop_
   _atom_site_label
   _atom_site_occupancy
   _atom_site_fract_x
   _atom_site_fract_y
   _atom_site_fract_z
   _atom_site_adp_type
   _atom_site_U_iso_or_equiv
   _atom_site_type_symbol
   Al1        1.0     0.107288     0.102501     0.332714    Uiso  ? Al
   Al2        1.0     0.216292     0.201595     0.085278    Uiso  ? Al
   Al3        1.0     0.774756     0.105583     0.827392    Uiso  ? Al
   Al4        1.0     0.883587     0.211431     0.582462    Uiso  ? Al
   Al5        1.0     0.442698     0.089537     0.370185    Uiso  ? Al
   Al6        1.0     0.105127     0.102996     0.836023    Uiso  ? Al
   Al7        1.0     0.218160     0.210700     0.581605    Uiso  ? Al
   Al8        1.0     0.787564     0.092673     0.338369    Uiso  ? Al
   Al9        1.0     0.897686     0.199437     0.084044    Uiso  ? Al
   Al10       1.0     0.437551     0.098575     0.853334    Uiso  ? Al
   Al11       1.0     0.558613     0.205723     0.577298    Uiso  ? Al
   Al12       1.0     0.108836     0.434163     0.395929    Uiso  ? Al
   Al13       1.0     0.214601     0.542265     0.148908    Uiso  ? Al
   Al14       1.0     0.773524     0.429874     0.900709    Uiso  ? Al
   Al15       1.0     0.887305     0.535727     0.644985    Uiso  ? Al
   Al16       1.0     0.439823     0.438145     0.395852    Uiso  ? Al
   Al17       1.0     0.558126     0.544298     0.147536    Uiso  ? Al
   Al18       1.0     0.224730     0.533792     0.649565    Uiso  ? Al
   Al19       1.0     0.774089     0.433503     0.398651    Uiso  ? Al
   Al20       1.0     0.894824     0.529453     0.155351    Uiso  ? Al
   Al21       1.0     0.437439     0.440891     0.897862    Uiso  ? Al
   Al22       1.0     0.562215     0.530210     0.649906    Uiso  ? Al
   Al23       1.0     0.113248     0.755275     0.398507    Uiso  ? Al
   Al24       1.0     0.450575     0.755460     0.399397    Uiso  ? Al
   Al25       1.0     0.556252     0.862563     0.158519    Uiso  ? Al
   Al26       1.0     0.113329     0.762172     0.901211    Uiso  ? Al
   Al27       1.0     0.779599     0.755608     0.404057    Uiso  ? Al
   Al28       1.0     0.900292     0.858389     0.156901    Uiso  ? Al
   Al29       1.0     0.441244     0.761219     0.899699    Uiso  ? Al
   Al30       1.0     0.560139     0.867655     0.641164    Uiso  ? Al
   Hf1        1.0     0.555344     0.203953     0.108479    Uiso  ? Hf
   Hf2        1.0     0.777107     0.762671     0.898032    Uiso  ? Hf
   Hf3        1.0     0.222817     0.870739     0.627215    Uiso  ? Hf
   Mg1        1.0     0.112605     0.430831     0.894308    Uiso  ? Mg
   Mg2        1.0     0.226690     0.865835     0.145498    Uiso  ? Mg
   Mg3        1.0     0.886709     0.870932     0.636956    Uiso  ? Mg
   N1         1.0     0.219717     0.204563     0.392838    Uiso  ? N
   N2         1.0     0.101342     0.110132     0.149599    Uiso  ? N
   N3         1.0     0.889603     0.200896     0.895039    Uiso  ? N
   N4         1.0     0.764819     0.119140     0.641754    Uiso  ? N
   N5         1.0     0.559294     0.204150     0.373090    Uiso  ? N
   N6         1.0     0.434599     0.084023     0.134889    Uiso  ? N
   N7         1.0     0.227190     0.187949     0.896750    Uiso  ? N
   N8         1.0     0.095133     0.122371     0.646644    Uiso  ? N
   N9         1.0     0.891523     0.201915     0.394546    Uiso  ? N
   N10        1.0     0.797642     0.086729     0.149248    Uiso  ? N
   N11        1.0     0.556002     0.202591     0.894103    Uiso  ? N
   N12        1.0     0.445607     0.093528     0.607059    Uiso  ? N
   N13        1.0     0.224115     0.538255     0.336998    Uiso  ? N
   N14        1.0     0.111175     0.427992     0.103495    Uiso  ? N
   N15        1.0     0.880266     0.531124     0.831158    Uiso  ? N
   N16        1.0     0.772809     0.435234     0.586512    Uiso  ? N
   N17        1.0     0.556385     0.538979     0.335932    Uiso  ? N
   N18        1.0     0.432580     0.452640     0.089582    Uiso  ? N
   N19        1.0     0.229403     0.548113     0.833604    Uiso  ? N
   N20        1.0     0.107436     0.435732     0.589630    Uiso  ? N
   N21        1.0     0.888691     0.536871     0.342262    Uiso  ? N
   N22        1.0     0.775942     0.431250     0.091650    Uiso  ? N
   N23        1.0     0.556868     0.537164     0.838146    Uiso  ? N
   N24        1.0     0.442633     0.432493     0.584773    Uiso  ? N
   N25        1.0     0.223547     0.874225     0.372273    Uiso  ? N
   N26        1.0     0.105026     0.753027     0.087363    Uiso  ? N
   N27        1.0     0.896134     0.879923     0.845510    Uiso  ? N
   N28        1.0     0.772419     0.751959     0.589090    Uiso  ? N
   N29        1.0     0.560051     0.863938     0.346200    Uiso  ? N
   N30        1.0     0.461714     0.753927     0.084023    Uiso  ? N
   N31        1.0     0.223866     0.869617     0.840635    Uiso  ? N
   N32        1.0     0.117303     0.741427     0.581332    Uiso  ? N
   N33        1.0     0.893156     0.862941     0.347827    Uiso  ? N
   N34        1.0     0.778161     0.759800     0.104410    Uiso  ? N
   N35        1.0     0.541673     0.876872     0.830510    Uiso  ? N
   N36        1.0     0.465177     0.746148     0.586682    Uiso  ? N
