
#======================================================================
# CRYSTAL DATA
#----------------------------------------------------------------------
data_VESTA_phase_1

_chemical_name_common                  'Al   Hf   Mg   N                      '
_cell_length_a                         9.644744
_cell_length_b                         9.622478
_cell_length_c                         10.290174
_cell_angle_alpha                      89.987038
_cell_angle_beta                       89.959404
_cell_angle_gamma                      59.874619
_cell_volume                           826.001387
_space_group_name_H-M_alt              'P 1'
_space_group_IT_number                 1

loop_
_space_group_symop_operation_xyz
   'x, y, z'

loop_
   _atom_site_label
   _atom_site_occupancy
   _atom_site_fract_x
   _atom_site_fract_y
   _atom_site_fract_z
   _atom_site_adp_type
   _atom_site_U_iso_or_equiv
   _atom_site_type_symbol
   Al1        1.0     0.107396     0.101271     0.335620    Uiso  ? Al
   Al2        1.0     0.217814     0.200733     0.084311    Uiso  ? Al
   Al3        1.0     0.777639     0.104338     0.824579    Uiso  ? Al
   Al4        1.0     0.881476     0.216901     0.582497    Uiso  ? Al
   Al5        1.0     0.438951     0.094437     0.341564    Uiso  ? Al
   Al6        1.0     0.107449     0.103065     0.837945    Uiso  ? Al
   Al7        1.0     0.216859     0.216667     0.581103    Uiso  ? Al
   Al8        1.0     0.783138     0.094838     0.341890    Uiso  ? Al
   Al9        1.0     0.895304     0.205230     0.084239    Uiso  ? Al
   Al10       1.0     0.433770     0.102021     0.825280    Uiso  ? Al
   Al11       1.0     0.557153     0.203103     0.579012    Uiso  ? Al
   Al12       1.0     0.114932     0.422149     0.333509    Uiso  ? Al
   Al13       1.0     0.220444     0.544034     0.147631    Uiso  ? Al
   Al14       1.0     0.778865     0.421614     0.835920    Uiso  ? Al
   Al15       1.0     0.890842     0.537654     0.629777    Uiso  ? Al
   Al16       1.0     0.439632     0.436025     0.399774    Uiso  ? Al
   Al17       1.0     0.551629     0.545031     0.148572    Uiso  ? Al
   Al18       1.0     0.226505     0.535305     0.652533    Uiso  ? Al
   Al19       1.0     0.779740     0.422149     0.331822    Uiso  ? Al
   Al20       1.0     0.889907     0.536239     0.139479    Uiso  ? Al
   Al21       1.0     0.438099     0.441230     0.896698    Uiso  ? Al
   Al22       1.0     0.554836     0.533590     0.650800    Uiso  ? Al
   Al23       1.0     0.113697     0.753594     0.400473    Uiso  ? Al
   Al24       1.0     0.449709     0.755443     0.401276    Uiso  ? Al
   Al25       1.0     0.555698     0.860575     0.161853    Uiso  ? Al
   Al26       1.0     0.113239     0.763108     0.902274    Uiso  ? Al
   Al27       1.0     0.779123     0.755842     0.403261    Uiso  ? Al
   Al28       1.0     0.900885     0.861125     0.160900    Uiso  ? Al
   Al29       1.0     0.442151     0.760992     0.901115    Uiso  ? Al
   Al30       1.0     0.559517     0.865791     0.643644    Uiso  ? Al
   Hf1        1.0     0.559445     0.197414     0.094332    Uiso  ? Hf
   Hf2        1.0     0.773570     0.769625     0.902397    Uiso  ? Hf
   Hf3        1.0     0.222031     0.871165     0.630274    Uiso  ? Hf
   Mg1        1.0     0.117376     0.421269     0.849233    Uiso  ? Mg
   Mg2        1.0     0.225227     0.867316     0.147280    Uiso  ? Mg
   Mg3        1.0     0.887761     0.870371     0.637682    Uiso  ? Mg
   N1         1.0     0.221810     0.205646     0.395727    Uiso  ? N
   N2         1.0     0.101103     0.111693     0.151522    Uiso  ? N
   N3         1.0     0.887982     0.204994     0.896744    Uiso  ? N
   N4         1.0     0.765802     0.119092     0.640188    Uiso  ? N
   N5         1.0     0.557993     0.200162     0.383530    Uiso  ? N
   N6         1.0     0.432123     0.089122     0.152441    Uiso  ? N
   N7         1.0     0.232772     0.185933     0.901361    Uiso  ? N
   N8         1.0     0.096528     0.121953     0.646128    Uiso  ? N
   N9         1.0     0.887845     0.207650     0.397248    Uiso  ? N
   N10        1.0     0.795627     0.090434     0.151985    Uiso  ? N
   N11        1.0     0.556963     0.198788     0.888602    Uiso  ? N
   N12        1.0     0.439985     0.101110     0.635456    Uiso  ? N
   N13        1.0     0.227689     0.538920     0.335702    Uiso  ? N
   N14        1.0     0.117110     0.420440     0.137981    Uiso  ? N
   N15        1.0     0.880832     0.533689     0.871238    Uiso  ? N
   N16        1.0     0.779435     0.427046     0.643092    Uiso  ? N
   N17        1.0     0.549367     0.540557     0.338405    Uiso  ? N
   N18        1.0     0.435951     0.446609     0.087407    Uiso  ? N
   N19        1.0     0.231277     0.550803     0.837245    Uiso  ? N
   N20        1.0     0.111324     0.428869     0.631801    Uiso  ? N
   N21        1.0     0.888794     0.538672     0.346557    Uiso  ? N
   N22        1.0     0.777737     0.421631     0.140633    Uiso  ? N
   N23        1.0     0.550542     0.540632     0.839415    Uiso  ? N
   N24        1.0     0.442125     0.432240     0.586742    Uiso  ? N
   N25        1.0     0.222096     0.874600     0.373142    Uiso  ? N
   N26        1.0     0.103979     0.754063     0.087723    Uiso  ? N
   N27        1.0     0.898664     0.880196     0.844436    Uiso  ? N
   N28        1.0     0.770620     0.754286     0.588342    Uiso  ? N
   N29        1.0     0.558589     0.863890     0.348165    Uiso  ? N
   N30        1.0     0.460823     0.754308     0.085198    Uiso  ? N
   N31        1.0     0.223600     0.870902     0.842485    Uiso  ? N
   N32        1.0     0.117550     0.741145     0.581726    Uiso  ? N
   N33        1.0     0.893342     0.863947     0.349348    Uiso  ? N
   N34        1.0     0.774243     0.768210     0.108037    Uiso  ? N
   N35        1.0     0.541308     0.873674     0.831042    Uiso  ? N
   N36        1.0     0.464407     0.746787     0.586470    Uiso  ? N
