
#======================================================================
# CRYSTAL DATA
#----------------------------------------------------------------------
data_VESTA_phase_1

_chemical_name_common                  'Al   Hf   Mg   N                      '
_cell_length_a                         9.596231
_cell_length_b                         9.641964
_cell_length_c                         10.272503
_cell_angle_alpha                      90.336082
_cell_angle_beta                       90.167610
_cell_angle_gamma                      59.995682
_cell_volume                           823.088913
_space_group_name_H-M_alt              'P 1'
_space_group_IT_number                 1

loop_
_space_group_symop_operation_xyz
   'x, y, z'

loop_
   _atom_site_label
   _atom_site_occupancy
   _atom_site_fract_x
   _atom_site_fract_y
   _atom_site_fract_z
   _atom_site_adp_type
   _atom_site_U_iso_or_equiv
   _atom_site_type_symbol
   Al1        1.0     0.108063     0.101146     0.329837    Uiso  ? Al
   Al2        1.0     0.215900     0.202383     0.079627    Uiso  ? Al
   Al3        1.0     0.778976     0.102762     0.819075    Uiso  ? Al
   Al4        1.0     0.882573     0.217202     0.577878    Uiso  ? Al
   Al5        1.0     0.441262     0.091137     0.331838    Uiso  ? Al
   Al6        1.0     0.107607     0.103510     0.833613    Uiso  ? Al
   Al7        1.0     0.218323     0.215019     0.576448    Uiso  ? Al
   Al8        1.0     0.781705     0.097584     0.333550    Uiso  ? Al
   Al9        1.0     0.895187     0.206184     0.078715    Uiso  ? Al
   Al10       1.0     0.436872     0.097206     0.824192    Uiso  ? Al
   Al11       1.0     0.555606     0.204879     0.576245    Uiso  ? Al
   Al12       1.0     0.111000     0.422637     0.328801    Uiso  ? Al
   Al13       1.0     0.219550     0.541764     0.143602    Uiso  ? Al
   Al14       1.0     0.783440     0.422768     0.828828    Uiso  ? Al
   Al15       1.0     0.892179     0.534752     0.573156    Uiso  ? Al
   Al16       1.0     0.440395     0.434266     0.395536    Uiso  ? Al
   Al17       1.0     0.553073     0.542491     0.146473    Uiso  ? Al
   Al18       1.0     0.223578     0.537209     0.645704    Uiso  ? Al
   Al19       1.0     0.783487     0.422592     0.327368    Uiso  ? Al
   Al20       1.0     0.889494     0.531428     0.082929    Uiso  ? Al
   Al21       1.0     0.437031     0.442809     0.889013    Uiso  ? Al
   Al22       1.0     0.557478     0.534441     0.644997    Uiso  ? Al
   Al23       1.0     0.116858     0.752100     0.390835    Uiso  ? Al
   Al24       1.0     0.447480     0.754179     0.392757    Uiso  ? Al
   Al25       1.0     0.555156     0.868973     0.082200    Uiso  ? Al
   Al26       1.0     0.112008     0.764083     0.900527    Uiso  ? Al
   Al27       1.0     0.775326     0.755290     0.326838    Uiso  ? Al
   Al28       1.0     0.899292     0.863576     0.142279    Uiso  ? Al
   Al29       1.0     0.439911     0.757108     0.900158    Uiso  ? Al
   Al30       1.0     0.561264     0.873504     0.572243    Uiso  ? Al
   Hf1        1.0     0.558572     0.198298     0.084098    Uiso  ? Hf
   Hf2        1.0     0.779855     0.760205     0.832376    Uiso  ? Hf
   Hf3        1.0     0.222756     0.869464     0.627862    Uiso  ? Hf
   Mg1        1.0     0.113540     0.420975     0.835140    Uiso  ? Mg
   Mg2        1.0     0.225353     0.866739     0.145655    Uiso  ? Mg
   Mg3        1.0     0.879476     0.878944     0.587022    Uiso  ? Mg
   N1         1.0     0.223170     0.205158     0.389868    Uiso  ? N
   N2         1.0     0.101782     0.110161     0.145299    Uiso  ? N
   N3         1.0     0.887295     0.207832     0.890395    Uiso  ? N
   N4         1.0     0.767535     0.117309     0.634015    Uiso  ? N
   N5         1.0     0.557190     0.200770     0.378759    Uiso  ? N
   N6         1.0     0.435453     0.083853     0.145611    Uiso  ? N
   N7         1.0     0.230372     0.190518     0.895627    Uiso  ? N
   N8         1.0     0.098627     0.119534     0.640818    Uiso  ? N
   N9         1.0     0.888438     0.208110     0.391876    Uiso  ? N
   N10        1.0     0.794522     0.091549     0.144695    Uiso  ? N
   N11        1.0     0.554390     0.205414     0.878938    Uiso  ? N
   N12        1.0     0.443995     0.093713     0.634572    Uiso  ? N
   N13        1.0     0.227742     0.537030     0.331007    Uiso  ? N
   N14        1.0     0.110460     0.421461     0.137819    Uiso  ? N
   N15        1.0     0.881971     0.529496     0.900616    Uiso  ? N
   N16        1.0     0.784320     0.428305     0.638193    Uiso  ? N
   N17        1.0     0.551427     0.538874     0.335216    Uiso  ? N
   N18        1.0     0.435764     0.445046     0.081933    Uiso  ? N
   N19        1.0     0.227369     0.553976     0.831075    Uiso  ? N
   N20        1.0     0.109294     0.428585     0.625551    Uiso  ? N
   N21        1.0     0.888266     0.537147     0.384278    Uiso  ? N
   N22        1.0     0.781638     0.421611     0.140112    Uiso  ? N
   N23        1.0     0.552532     0.542033     0.833286    Uiso  ? N
   N24        1.0     0.442297     0.432256     0.583034    Uiso  ? N
   N25        1.0     0.222161     0.874880     0.364375    Uiso  ? N
   N26        1.0     0.108039     0.750638     0.085417    Uiso  ? N
   N27        1.0     0.893896     0.887380     0.860652    Uiso  ? N
   N28        1.0     0.770965     0.751562     0.630082    Uiso  ? N
   N29        1.0     0.558611     0.873720     0.384338    Uiso  ? N
   N30        1.0     0.456100     0.747688     0.084603    Uiso  ? N
   N31        1.0     0.223526     0.871737     0.838449    Uiso  ? N
   N32        1.0     0.117360     0.741019     0.573294    Uiso  ? N
   N33        1.0     0.892397     0.868086     0.347581    Uiso  ? N
   N34        1.0     0.775288     0.757486     0.136262    Uiso  ? N
   N35        1.0     0.542135     0.886019     0.891241    Uiso  ? N
   N36        1.0     0.463830     0.745418     0.581636    Uiso  ? N
