
#======================================================================
# CRYSTAL DATA
#----------------------------------------------------------------------
data_VESTA_phase_1

_chemical_name_common                  'Al   Hf   Mg   N                      '
_cell_length_a                         9.590420
_cell_length_b                         9.632775
_cell_length_c                         10.272416
_cell_angle_alpha                      90.168571
_cell_angle_beta                       90.086998
_cell_angle_gamma                      60.045101
_cell_volume                           822.219165
_space_group_name_H-M_alt              'P 1'
_space_group_IT_number                 1

loop_
_space_group_symop_operation_xyz
   'x, y, z'

loop_
   _atom_site_label
   _atom_site_occupancy
   _atom_site_fract_x
   _atom_site_fract_y
   _atom_site_fract_z
   _atom_site_adp_type
   _atom_site_U_iso_or_equiv
   _atom_site_type_symbol
   Al1        1.0     0.106960     0.101953     0.327046    Uiso  ? Al
   Al2        1.0     0.214921     0.202654     0.075771    Uiso  ? Al
   Al3        1.0     0.777345     0.102727     0.820335    Uiso  ? Al
   Al4        1.0     0.881968     0.215565     0.574587    Uiso  ? Al
   Al5        1.0     0.441184     0.090497     0.328035    Uiso  ? Al
   Al6        1.0     0.107737     0.102745     0.828231    Uiso  ? Al
   Al7        1.0     0.218518     0.215142     0.572226    Uiso  ? Al
   Al8        1.0     0.786089     0.090255     0.326101    Uiso  ? Al
   Al9        1.0     0.894755     0.207317     0.075453    Uiso  ? Al
   Al10       1.0     0.436782     0.097114     0.820743    Uiso  ? Al
   Al11       1.0     0.558111     0.202723     0.571887    Uiso  ? Al
   Al12       1.0     0.110222     0.423336     0.325010    Uiso  ? Al
   Al13       1.0     0.217915     0.543957     0.141083    Uiso  ? Al
   Al14       1.0     0.783251     0.421665     0.824166    Uiso  ? Al
   Al15       1.0     0.892325     0.535312     0.568087    Uiso  ? Al
   Al16       1.0     0.440567     0.434008     0.391045    Uiso  ? Al
   Al17       1.0     0.552427     0.543737     0.142838    Uiso  ? Al
   Al18       1.0     0.225231     0.535625     0.641129    Uiso  ? Al
   Al19       1.0     0.783146     0.423143     0.323905    Uiso  ? Al
   Al20       1.0     0.889225     0.532240     0.079152    Uiso  ? Al
   Al21       1.0     0.437414     0.441406     0.886437    Uiso  ? Al
   Al22       1.0     0.557783     0.533798     0.640570    Uiso  ? Al
   Al23       1.0     0.113762     0.753577     0.388022    Uiso  ? Al
   Al24       1.0     0.449585     0.753878     0.388248    Uiso  ? Al
   Al25       1.0     0.554107     0.869796     0.077815    Uiso  ? Al
   Al26       1.0     0.120300     0.759364     0.895167    Uiso  ? Al
   Al27       1.0     0.780176     0.760639     0.318331    Uiso  ? Al
   Al28       1.0     0.892129     0.871231     0.081774    Uiso  ? Al
   Al29       1.0     0.439426     0.756545     0.895783    Uiso  ? Al
   Al30       1.0     0.563707     0.872631     0.567245    Uiso  ? Al
   Hf1        1.0     0.555291     0.201715     0.085766    Uiso  ? Hf
   Hf2        1.0     0.779040     0.759305     0.828827    Uiso  ? Hf
   Hf3        1.0     0.224187     0.870141     0.619621    Uiso  ? Hf
   Mg1        1.0     0.112960     0.419909     0.830241    Uiso  ? Mg
   Mg2        1.0     0.224225     0.867193     0.144244    Uiso  ? Mg
   Mg3        1.0     0.877301     0.879575     0.569783    Uiso  ? Mg
   N1         1.0     0.223044     0.205411     0.385979    Uiso  ? N
   N2         1.0     0.100866     0.110702     0.142543    Uiso  ? N
   N3         1.0     0.888018     0.206942     0.886978    Uiso  ? N
   N4         1.0     0.769287     0.112881     0.636170    Uiso  ? N
   N5         1.0     0.558099     0.200682     0.371838    Uiso  ? N
   N6         1.0     0.433706     0.083730     0.141579    Uiso  ? N
   N7         1.0     0.229971     0.189601     0.891591    Uiso  ? N
   N8         1.0     0.098043     0.120337     0.636521    Uiso  ? N
   N9         1.0     0.886909     0.207524     0.387981    Uiso  ? N
   N10        1.0     0.795084     0.089444     0.137859    Uiso  ? N
   N11        1.0     0.553584     0.204503     0.879478    Uiso  ? N
   N12        1.0     0.444800     0.093138     0.630487    Uiso  ? N
   N13        1.0     0.226672     0.538137     0.328176    Uiso  ? N
   N14        1.0     0.110258     0.422044     0.133579    Uiso  ? N
   N15        1.0     0.880788     0.529438     0.896170    Uiso  ? N
   N16        1.0     0.784568     0.427589     0.633695    Uiso  ? N
   N17        1.0     0.551193     0.539243     0.331064    Uiso  ? N
   N18        1.0     0.434213     0.447584     0.078870    Uiso  ? N
   N19        1.0     0.228299     0.551266     0.826397    Uiso  ? N
   N20        1.0     0.109377     0.428461     0.621076    Uiso  ? N
   N21        1.0     0.887374     0.539515     0.378759    Uiso  ? N
   N22        1.0     0.781001     0.422639     0.136198    Uiso  ? N
   N23        1.0     0.552334     0.541122     0.829213    Uiso  ? N
   N24        1.0     0.444271     0.429999     0.578539    Uiso  ? N
   N25        1.0     0.222464     0.875243     0.363283    Uiso  ? N
   N26        1.0     0.112368     0.749586     0.079753    Uiso  ? N
   N27        1.0     0.888514     0.889643     0.886375    Uiso  ? N
   N28        1.0     0.772929     0.751840     0.628814    Uiso  ? N
   N29        1.0     0.561045     0.872849     0.378798    Uiso  ? N
   N30        1.0     0.454804     0.748884     0.080489    Uiso  ? N
   N31        1.0     0.223627     0.871165     0.831526    Uiso  ? N
   N32        1.0     0.118478     0.740700     0.573248    Uiso  ? N
   N33        1.0     0.888373     0.871404     0.363845    Uiso  ? N
   N34        1.0     0.776764     0.760982     0.127287    Uiso  ? N
   N35        1.0     0.542062     0.884607     0.886088    Uiso  ? N
   N36        1.0     0.466560     0.744330     0.577110    Uiso  ? N
