
#======================================================================
# CRYSTAL DATA
#----------------------------------------------------------------------
data_VESTA_phase_1

_chemical_name_common                  'Al   Hf   Mg   N                      '
_cell_length_a                         9.628622
_cell_length_b                         9.645327
_cell_length_c                         10.163982
_cell_angle_alpha                      89.831100
_cell_angle_beta                       89.603500
_cell_angle_gamma                      59.973991
_cell_volume                           817.243093
_space_group_name_H-M_alt              'P 1'
_space_group_IT_number                 1

loop_
_space_group_symop_operation_xyz
   'x, y, z'

loop_
   _atom_site_label
   _atom_site_occupancy
   _atom_site_fract_x
   _atom_site_fract_y
   _atom_site_fract_z
   _atom_site_adp_type
   _atom_site_U_iso_or_equiv
   _atom_site_type_symbol
   Al1        1.0     0.106603     0.095584     0.335577    Uiso  ? Al
   Al2        1.0     0.216910     0.212324     0.150362    Uiso  ? Al
   Al3        1.0     0.774937     0.106920     0.826115    Uiso  ? Al
   Al4        1.0     0.885084     0.210085     0.577574    Uiso  ? Al
   Al5        1.0     0.437585     0.089853     0.397013    Uiso  ? Al
   Al6        1.0     0.113247     0.095565     0.876483    Uiso  ? Al
   Al7        1.0     0.221142     0.210844     0.651844    Uiso  ? Al
   Al8        1.0     0.784242     0.093172     0.337927    Uiso  ? Al
   Al9        1.0     0.892344     0.203429     0.085243    Uiso  ? Al
   Al10       1.0     0.437894     0.092416     0.898495    Uiso  ? Al
   Al11       1.0     0.556330     0.207469     0.580443    Uiso  ? Al
   Al12       1.0     0.112296     0.426288     0.399438    Uiso  ? Al
   Al13       1.0     0.214228     0.543081     0.150408    Uiso  ? Al
   Al14       1.0     0.774633     0.430254     0.899044    Uiso  ? Al
   Al15       1.0     0.888147     0.533913     0.643359    Uiso  ? Al
   Al16       1.0     0.438329     0.438746     0.394502    Uiso  ? Al
   Al17       1.0     0.558365     0.544692     0.148570    Uiso  ? Al
   Al18       1.0     0.223868     0.534261     0.648516    Uiso  ? Al
   Al19       1.0     0.772835     0.435524     0.396227    Uiso  ? Al
   Al20       1.0     0.893325     0.532838     0.154632    Uiso  ? Al
   Al21       1.0     0.439510     0.438552     0.896873    Uiso  ? Al
   Al22       1.0     0.561779     0.531891     0.647479    Uiso  ? Al
   Al23       1.0     0.113107     0.755070     0.397643    Uiso  ? Al
   Al24       1.0     0.446778     0.759015     0.397508    Uiso  ? Al
   Al25       1.0     0.554547     0.865253     0.154103    Uiso  ? Al
   Al26       1.0     0.113355     0.759748     0.903022    Uiso  ? Al
   Al27       1.0     0.776895     0.757365     0.403019    Uiso  ? Al
   Al28       1.0     0.898952     0.858907     0.156445    Uiso  ? Al
   Al29       1.0     0.447091     0.757120     0.901100    Uiso  ? Al
   Al30       1.0     0.556763     0.871682     0.642724    Uiso  ? Al
   Hf1        1.0     0.554295     0.206772     0.114420    Uiso  ? Hf
   Hf2        1.0     0.779823     0.762832     0.893779    Uiso  ? Hf
   Hf3        1.0     0.220663     0.871915     0.638199    Uiso  ? Hf
   Mg1        1.0     0.116501     0.425875     0.897948    Uiso  ? Mg
   Mg2        1.0     0.228450     0.861435     0.142664    Uiso  ? Mg
   Mg3        1.0     0.886201     0.872056     0.633125    Uiso  ? Mg
   N1         1.0     0.223253     0.207615     0.341066    Uiso  ? N
   N2         1.0     0.104930     0.105116     0.128224    Uiso  ? N
   N3         1.0     0.888948     0.202603     0.894431    Uiso  ? N
   N4         1.0     0.763994     0.119599     0.637877    Uiso  ? N
   N5         1.0     0.554144     0.205698     0.363590    Uiso  ? N
   N6         1.0     0.433836     0.080108     0.091421    Uiso  ? N
   N7         1.0     0.231243     0.194824     0.838846    Uiso  ? N
   N8         1.0     0.098408     0.113704     0.621696    Uiso  ? N
   N9         1.0     0.887790     0.204984     0.385860    Uiso  ? N
   N10        1.0     0.796788     0.086546     0.147526    Uiso  ? N
   N11        1.0     0.558921     0.204010     0.895723    Uiso  ? N
   N12        1.0     0.442627     0.092848     0.586574    Uiso  ? N
   N13        1.0     0.222295     0.537197     0.338655    Uiso  ? N
   N14        1.0     0.111848     0.428125     0.101933    Uiso  ? N
   N15        1.0     0.882915     0.530084     0.830897    Uiso  ? N
   N16        1.0     0.773139     0.434418     0.584879    Uiso  ? N
   N17        1.0     0.554837     0.540787     0.336986    Uiso  ? N
   N18        1.0     0.432572     0.453827     0.090532    Uiso  ? N
   N19        1.0     0.230050     0.548016     0.833748    Uiso  ? N
   N20        1.0     0.112517     0.426741     0.589875    Uiso  ? N
   N21        1.0     0.889422     0.537699     0.342789    Uiso  ? N
   N22        1.0     0.775899     0.432917     0.092395    Uiso  ? N
   N23        1.0     0.557914     0.536807     0.836973    Uiso  ? N
   N24        1.0     0.442607     0.432441     0.584362    Uiso  ? N
   N25        1.0     0.223373     0.870296     0.360306    Uiso  ? N
   N26        1.0     0.103503     0.751712     0.088444    Uiso  ? N
   N27        1.0     0.898809     0.881008     0.843210    Uiso  ? N
   N28        1.0     0.770622     0.752382     0.589996    Uiso  ? N
   N29        1.0     0.555302     0.870726     0.341578    Uiso  ? N
   N30        1.0     0.464035     0.751958     0.084856    Uiso  ? N
   N31        1.0     0.225839     0.869700     0.852144    Uiso  ? N
   N32        1.0     0.117735     0.742181     0.580966    Uiso  ? N
   N33        1.0     0.891176     0.864248     0.348466    Uiso  ? N
   N34        1.0     0.777829     0.760916     0.102000    Uiso  ? N
   N35        1.0     0.541582     0.879252     0.832363    Uiso  ? N
   N36        1.0     0.462024     0.750167     0.586251    Uiso  ? N
