
#======================================================================
# CRYSTAL DATA
#----------------------------------------------------------------------
data_VESTA_phase_1

_chemical_name_common                  'Al   Hf   Mg   N                      '
_cell_length_a                         9.624427
_cell_length_b                         9.647427
_cell_length_c                         10.099824
_cell_angle_alpha                      89.986908
_cell_angle_beta                       89.628830
_cell_angle_gamma                      60.021576
_cell_volume                           812.294369
_space_group_name_H-M_alt              'P 1'
_space_group_IT_number                 1

loop_
_space_group_symop_operation_xyz
   'x, y, z'

loop_
   _atom_site_label
   _atom_site_occupancy
   _atom_site_fract_x
   _atom_site_fract_y
   _atom_site_fract_z
   _atom_site_adp_type
   _atom_site_U_iso_or_equiv
   _atom_site_type_symbol
   Al1        1.0     0.113370     0.097320     0.397128    Uiso  ? Al
   Al2        1.0     0.217590     0.207771     0.156607    Uiso  ? Al
   Al3        1.0     0.783686     0.100660     0.831026    Uiso  ? Al
   Al4        1.0     0.880088     0.215967     0.607787    Uiso  ? Al
   Al5        1.0     0.443511     0.094517     0.405092    Uiso  ? Al
   Al6        1.0     0.110564     0.097828     0.910273    Uiso  ? Al
   Al7        1.0     0.218211     0.211620     0.653691    Uiso  ? Al
   Al8        1.0     0.782188     0.092904     0.347421    Uiso  ? Al
   Al9        1.0     0.895545     0.208472     0.132754    Uiso  ? Al
   Al10       1.0     0.432663     0.092716     0.897506    Uiso  ? Al
   Al11       1.0     0.544980     0.212008     0.653515    Uiso  ? Al
   Al12       1.0     0.113128     0.427216     0.402086    Uiso  ? Al
   Al13       1.0     0.217867     0.540713     0.155085    Uiso  ? Al
   Al14       1.0     0.776630     0.425228     0.904427    Uiso  ? Al
   Al15       1.0     0.887428     0.534855     0.648740    Uiso  ? Al
   Al16       1.0     0.443486     0.429127     0.404978    Uiso  ? Al
   Al17       1.0     0.556859     0.544340     0.153459    Uiso  ? Al
   Al18       1.0     0.221709     0.535529     0.654332    Uiso  ? Al
   Al19       1.0     0.773675     0.434136     0.399280    Uiso  ? Al
   Al20       1.0     0.894594     0.533507     0.159237    Uiso  ? Al
   Al21       1.0     0.437794     0.439762     0.897785    Uiso  ? Al
   Al22       1.0     0.559804     0.533862     0.653369    Uiso  ? Al
   Al23       1.0     0.116287     0.754308     0.401631    Uiso  ? Al
   Al24       1.0     0.446794     0.758724     0.401502    Uiso  ? Al
   Al25       1.0     0.554502     0.866358     0.158677    Uiso  ? Al
   Al26       1.0     0.113604     0.759667     0.909994    Uiso  ? Al
   Al27       1.0     0.776670     0.757644     0.407433    Uiso  ? Al
   Al28       1.0     0.900699     0.857645     0.160887    Uiso  ? Al
   Al29       1.0     0.444517     0.757987     0.907607    Uiso  ? Al
   Al30       1.0     0.555465     0.871595     0.647502    Uiso  ? Al
   Hf1        1.0     0.554573     0.205805     0.129661    Uiso  ? Hf
   Hf2        1.0     0.778112     0.762463     0.898153    Uiso  ? Hf
   Hf3        1.0     0.219469     0.874313     0.646890    Uiso  ? Hf
   Mg1        1.0     0.115804     0.422723     0.902768    Uiso  ? Mg
   Mg2        1.0     0.223892     0.870824     0.154020    Uiso  ? Mg
   Mg3        1.0     0.887318     0.869347     0.635046    Uiso  ? Mg
   N1         1.0     0.226047     0.204988     0.346632    Uiso  ? N
   N2         1.0     0.110768     0.105722     0.098220    Uiso  ? N
   N3         1.0     0.890380     0.207161     0.870842    Uiso  ? N
   N4         1.0     0.766282     0.113182     0.635816    Uiso  ? N
   N5         1.0     0.550406     0.207893     0.344543    Uiso  ? N
   N6         1.0     0.436520     0.080511     0.089836    Uiso  ? N
   N7         1.0     0.225174     0.191377     0.837812    Uiso  ? N
   N8         1.0     0.102329     0.113914     0.588099    Uiso  ? N
   N9         1.0     0.888703     0.210097     0.362671    Uiso  ? N
   N10        1.0     0.798588     0.082406     0.144617    Uiso  ? N
   N11        1.0     0.548851     0.207660     0.860166    Uiso  ? N
   N12        1.0     0.442945     0.095240     0.595085    Uiso  ? N
   N13        1.0     0.226426     0.535456     0.345129    Uiso  ? N
   N14        1.0     0.114236     0.425604     0.109137    Uiso  ? N
   N15        1.0     0.881866     0.530279     0.836869    Uiso  ? N
   N16        1.0     0.772110     0.434675     0.588634    Uiso  ? N
   N17        1.0     0.553814     0.539045     0.343746    Uiso  ? N
   N18        1.0     0.436431     0.448675     0.089431    Uiso  ? N
   N19        1.0     0.226579     0.548778     0.839977    Uiso  ? N
   N20        1.0     0.110816     0.427927     0.594048    Uiso  ? N
   N21        1.0     0.889538     0.538564     0.348159    Uiso  ? N
   N22        1.0     0.776781     0.431525     0.098782    Uiso  ? N
   N23        1.0     0.557079     0.538634     0.842945    Uiso  ? N
   N24        1.0     0.443894     0.427439     0.595564    Uiso  ? N
   N25        1.0     0.223239     0.872874     0.366126    Uiso  ? N
   N26        1.0     0.107179     0.750660     0.096717    Uiso  ? N
   N27        1.0     0.899848     0.878114     0.848546    Uiso  ? N
   N28        1.0     0.769398     0.751728     0.595457    Uiso  ? N
   N29        1.0     0.555035     0.873156     0.347907    Uiso  ? N
   N30        1.0     0.461895     0.752880     0.092845    Uiso  ? N
   N31        1.0     0.222833     0.872205     0.857028    Uiso  ? N
   N32        1.0     0.120849     0.742483     0.586676    Uiso  ? N
   N33        1.0     0.892160     0.864525     0.354811    Uiso  ? N
   N34        1.0     0.778697     0.759773     0.107474    Uiso  ? N
   N35        1.0     0.539850     0.877918     0.837090    Uiso  ? N
   N36        1.0     0.459121     0.750734     0.591724    Uiso  ? N
