
#======================================================================
# CRYSTAL DATA
#----------------------------------------------------------------------
data_VESTA_phase_1

_chemical_name_common                  'Al   Hf   Mg   N                      '
_cell_length_a                         9.589764
_cell_length_b                         9.614133
_cell_length_c                         10.097035
_cell_angle_alpha                      90.061348
_cell_angle_beta                       89.820305
_cell_angle_gamma                      59.969967
_cell_volume                           805.947713
_space_group_name_H-M_alt              'P 1'
_space_group_IT_number                 1

loop_
_space_group_symop_operation_xyz
   'x, y, z'

loop_
   _atom_site_label
   _atom_site_occupancy
   _atom_site_fract_x
   _atom_site_fract_y
   _atom_site_fract_z
   _atom_site_adp_type
   _atom_site_U_iso_or_equiv
   _atom_site_type_symbol
   Al1        1.0     0.108299     0.099918     0.399291    Uiso  ? Al
   Al2        1.0     0.215442     0.207740     0.154242    Uiso  ? Al
   Al3        1.0     0.784571     0.095147     0.892775    Uiso  ? Al
   Al4        1.0     0.881488     0.215735     0.650855    Uiso  ? Al
   Al5        1.0     0.442406     0.093302     0.405737    Uiso  ? Al
   Al6        1.0     0.109213     0.099131     0.906714    Uiso  ? Al
   Al7        1.0     0.219439     0.211263     0.652304    Uiso  ? Al
   Al8        1.0     0.779355     0.096964     0.407535    Uiso  ? Al
   Al9        1.0     0.893683     0.207210     0.152747    Uiso  ? Al
   Al10       1.0     0.434432     0.093625     0.896184    Uiso  ? Al
   Al11       1.0     0.554077     0.207579     0.652726    Uiso  ? Al
   Al12       1.0     0.113058     0.427120     0.401188    Uiso  ? Al
   Al13       1.0     0.216638     0.541825     0.154228    Uiso  ? Al
   Al14       1.0     0.777158     0.424406     0.903244    Uiso  ? Al
   Al15       1.0     0.888207     0.534726     0.646820    Uiso  ? Al
   Al16       1.0     0.443010     0.430811     0.406570    Uiso  ? Al
   Al17       1.0     0.558162     0.542533     0.152341    Uiso  ? Al
   Al18       1.0     0.222516     0.535186     0.653757    Uiso  ? Al
   Al19       1.0     0.776996     0.427613     0.402310    Uiso  ? Al
   Al20       1.0     0.893778     0.532990     0.158568    Uiso  ? Al
   Al21       1.0     0.439692     0.436729     0.896652    Uiso  ? Al
   Al22       1.0     0.560902     0.533390     0.652637    Uiso  ? Al
   Al23       1.0     0.113873     0.756465     0.399939    Uiso  ? Al
   Al24       1.0     0.447759     0.757968     0.400367    Uiso  ? Al
   Al25       1.0     0.554361     0.866667     0.157652    Uiso  ? Al
   Al26       1.0     0.114638     0.758987     0.909489    Uiso  ? Al
   Al27       1.0     0.777316     0.758771     0.405589    Uiso  ? Al
   Al28       1.0     0.895852     0.867677     0.159107    Uiso  ? Al
   Al29       1.0     0.443940     0.758066     0.906903    Uiso  ? Al
   Al30       1.0     0.556529     0.871148     0.646904    Uiso  ? Al
   Hf1        1.0     0.554759     0.205770     0.141735    Uiso  ? Hf
   Hf2        1.0     0.778921     0.760600     0.898185    Uiso  ? Hf
   Hf3        1.0     0.219773     0.874280     0.644068    Uiso  ? Hf
   Mg1        1.0     0.116535     0.422680     0.902571    Uiso  ? Mg
   Mg2        1.0     0.222510     0.873256     0.153255    Uiso  ? Mg
   Mg3        1.0     0.886311     0.873299     0.640993    Uiso  ? Mg
   N1         1.0     0.224716     0.204351     0.345192    Uiso  ? N
   N2         1.0     0.104064     0.109220     0.092984    Uiso  ? N
   N3         1.0     0.889038     0.207828     0.841380    Uiso  ? N
   N4         1.0     0.768998     0.112533     0.593994    Uiso  ? N
   N5         1.0     0.554546     0.205675     0.349181    Uiso  ? N
   N6         1.0     0.436600     0.082758     0.088845    Uiso  ? N
   N7         1.0     0.225555     0.191709     0.836750    Uiso  ? N
   N8         1.0     0.098230     0.116461     0.588536    Uiso  ? N
   N9         1.0     0.887288     0.207170     0.342645    Uiso  ? N
   N10        1.0     0.795647     0.085700     0.090980    Uiso  ? N
   N11        1.0     0.553649     0.205188     0.851912    Uiso  ? N
   N12        1.0     0.444130     0.094491     0.594783    Uiso  ? N
   N13        1.0     0.226089     0.535964     0.344223    Uiso  ? N
   N14        1.0     0.113315     0.426238     0.108354    Uiso  ? N
   N15        1.0     0.882834     0.528803     0.835647    Uiso  ? N
   N16        1.0     0.775665     0.428905     0.590560    Uiso  ? N
   N17        1.0     0.555806     0.537227     0.343252    Uiso  ? N
   N18        1.0     0.436943     0.445572     0.088711    Uiso  ? N
   N19        1.0     0.227116     0.548212     0.839730    Uiso  ? N
   N20        1.0     0.111795     0.427728     0.592847    Uiso  ? N
   N21        1.0     0.888789     0.537521     0.347994    Uiso  ? N
   N22        1.0     0.778399     0.427070     0.095075    Uiso  ? N
   N23        1.0     0.557241     0.538321     0.842705    Uiso  ? N
   N24        1.0     0.444854     0.427032     0.596223    Uiso  ? N
   N25        1.0     0.222645     0.874235     0.366498    Uiso  ? N
   N26        1.0     0.105166     0.753003     0.096585    Uiso  ? N
   N27        1.0     0.899529     0.878489     0.846452    Uiso  ? N
   N28        1.0     0.770980     0.752421     0.594160    Uiso  ? N
   N29        1.0     0.554893     0.873125     0.346609    Uiso  ? N
   N30        1.0     0.461140     0.752672     0.092431    Uiso  ? N
   N31        1.0     0.221860     0.872949     0.854949    Uiso  ? N
   N32        1.0     0.119399     0.742788     0.585258    Uiso  ? N
   N33        1.0     0.887695     0.873559     0.350440    Uiso  ? N
   N34        1.0     0.778547     0.760621     0.107209    Uiso  ? N
   N35        1.0     0.540329     0.877284     0.836826    Uiso  ? N
   N36        1.0     0.460651     0.749861     0.590503    Uiso  ? N
