
#======================================================================
# CRYSTAL DATA
#----------------------------------------------------------------------
data_VESTA_phase_1

_chemical_name_common                  'Al   Hf   Mg   N                      '
_cell_length_a                         9.610402
_cell_length_b                         9.640680
_cell_length_c                         10.064574
_cell_angle_alpha                      89.739555
_cell_angle_beta                       89.835602
_cell_angle_gamma                      60.086998
_cell_volume                           808.259366
_space_group_name_H-M_alt              'P 1'
_space_group_IT_number                 1

loop_
_space_group_symop_operation_xyz
   'x, y, z'

loop_
   _atom_site_label
   _atom_site_occupancy
   _atom_site_fract_x
   _atom_site_fract_y
   _atom_site_fract_z
   _atom_site_adp_type
   _atom_site_U_iso_or_equiv
   _atom_site_type_symbol
   Al1        1.0     0.108393     0.099704     0.318217    Uiso  ? Al
   Al2        1.0     0.216150     0.206173     0.069809    Uiso  ? Al
   Al3        1.0     0.780408     0.100744     0.814114    Uiso  ? Al
   Al4        1.0     0.881286     0.215012     0.569855    Uiso  ? Al
   Al5        1.0     0.441586     0.090620     0.326162    Uiso  ? Al
   Al6        1.0     0.107284     0.103114     0.823073    Uiso  ? Al
   Al7        1.0     0.217624     0.212581     0.567510    Uiso  ? Al
   Al8        1.0     0.782835     0.093652     0.323486    Uiso  ? Al
   Al9        1.0     0.892181     0.209900     0.070266    Uiso  ? Al
   Al10       1.0     0.436144     0.095069     0.815108    Uiso  ? Al
   Al11       1.0     0.554813     0.206573     0.568806    Uiso  ? Al
   Al12       1.0     0.112345     0.425107     0.319634    Uiso  ? Al
   Al13       1.0     0.220912     0.538500     0.073757    Uiso  ? Al
   Al14       1.0     0.776988     0.424550     0.818856    Uiso  ? Al
   Al15       1.0     0.890808     0.535317     0.564096    Uiso  ? Al
   Al16       1.0     0.444407     0.431238     0.324219    Uiso  ? Al
   Al17       1.0     0.558358     0.541745     0.069809    Uiso  ? Al
   Al18       1.0     0.222095     0.530759     0.563789    Uiso  ? Al
   Al19       1.0     0.777009     0.427058     0.319467    Uiso  ? Al
   Al20       1.0     0.890790     0.532173     0.075447    Uiso  ? Al
   Al21       1.0     0.440400     0.433215     0.814184    Uiso  ? Al
   Al22       1.0     0.561328     0.532651     0.569841    Uiso  ? Al
   Al23       1.0     0.112195     0.758473     0.334549    Uiso  ? Al
   Al24       1.0     0.449600     0.757115     0.318338    Uiso  ? Al
   Al25       1.0     0.552376     0.868105     0.074424    Uiso  ? Al
   Al26       1.0     0.117588     0.761865     0.872916    Uiso  ? Al
   Al27       1.0     0.778164     0.759751     0.314381    Uiso  ? Al
   Al28       1.0     0.892578     0.872896     0.084675    Uiso  ? Al
   Al29       1.0     0.447229     0.755727     0.822302    Uiso  ? Al
   Al30       1.0     0.559596     0.867752     0.566038    Uiso  ? Al
   Hf1        1.0     0.553592     0.205933     0.075853    Uiso  ? Hf
   Hf2        1.0     0.780724     0.759446     0.828104    Uiso  ? Hf
   Hf3        1.0     0.220331     0.872894     0.589667    Uiso  ? Hf
   Mg1        1.0     0.116537     0.423436     0.819427    Uiso  ? Mg
   Mg2        1.0     0.226761     0.878821     0.081024    Uiso  ? Mg
   Mg3        1.0     0.880058     0.876447     0.562829    Uiso  ? Mg
   N1         1.0     0.222269     0.204295     0.378109    Uiso  ? N
   N2         1.0     0.100847     0.112551     0.132367    Uiso  ? N
   N3         1.0     0.886583     0.208072     0.879783    Uiso  ? N
   N4         1.0     0.769431     0.110600     0.627458    Uiso  ? N
   N5         1.0     0.555580     0.204446     0.371382    Uiso  ? N
   N6         1.0     0.436105     0.084778     0.135230    Uiso  ? N
   N7         1.0     0.229503     0.192024     0.883295    Uiso  ? N
   N8         1.0     0.095650     0.119852     0.632004    Uiso  ? N
   N9         1.0     0.888127     0.207366     0.379907    Uiso  ? N
   N10        1.0     0.790748     0.093471     0.132241    Uiso  ? N
   N11        1.0     0.553457     0.204966     0.868168    Uiso  ? N
   N12        1.0     0.443767     0.091118     0.623375    Uiso  ? N
   N13        1.0     0.225445     0.533127     0.371196    Uiso  ? N
   N14        1.0     0.113661     0.425157     0.128289    Uiso  ? N
   N15        1.0     0.883141     0.527209     0.888028    Uiso  ? N
   N16        1.0     0.777450     0.429615     0.627674    Uiso  ? N
   N17        1.0     0.556898     0.537711     0.380258    Uiso  ? N
   N18        1.0     0.440299     0.441968     0.133804    Uiso  ? N
   N19        1.0     0.232633     0.540725     0.884481    Uiso  ? N
   N20        1.0     0.109554     0.427453     0.613658    Uiso  ? N
   N21        1.0     0.887591     0.538791     0.371148    Uiso  ? N
   N22        1.0     0.775687     0.426272     0.130111    Uiso  ? N
   N23        1.0     0.556364     0.535693     0.877755    Uiso  ? N
   N24        1.0     0.443548     0.426644     0.623405    Uiso  ? N
   N25        1.0     0.225224     0.874769     0.371156    Uiso  ? N
   N26        1.0     0.110253     0.755004     0.112275    Uiso  ? N
   N27        1.0     0.892287     0.888353     0.886606    Uiso  ? N
   N28        1.0     0.772213     0.751197     0.624295    Uiso  ? N
   N29        1.0     0.557805     0.869642     0.376776    Uiso  ? N
   N30        1.0     0.461757     0.750121     0.132005    Uiso  ? N
   N31        1.0     0.223072     0.876078     0.848389    Uiso  ? N
   N32        1.0     0.113136     0.744324     0.600489    Uiso  ? N
   N33        1.0     0.886612     0.872159     0.355822    Uiso  ? N
   N34        1.0     0.776639     0.761177     0.119170    Uiso  ? N
   N35        1.0     0.540226     0.879448     0.883087    Uiso  ? N
   N36        1.0     0.465963     0.747052     0.631488    Uiso  ? N
