
#======================================================================
# CRYSTAL DATA
#----------------------------------------------------------------------
data_VESTA_phase_1

_chemical_name_common                  'Al   Hf   Mg   N                      '
_cell_length_a                         9.605627
_cell_length_b                         9.634039
_cell_length_c                         10.065036
_cell_angle_alpha                      89.758659
_cell_angle_beta                       89.846207
_cell_angle_gamma                      60.070435
_cell_volume                           807.205151
_space_group_name_H-M_alt              'P 1'
_space_group_IT_number                 1

loop_
_space_group_symop_operation_xyz
   'x, y, z'

loop_
   _atom_site_label
   _atom_site_occupancy
   _atom_site_fract_x
   _atom_site_fract_y
   _atom_site_fract_z
   _atom_site_adp_type
   _atom_site_U_iso_or_equiv
   _atom_site_type_symbol
   Al1        1.0     0.108310     0.099470     0.317937    Uiso  ? Al
   Al2        1.0     0.216159     0.206171     0.069942    Uiso  ? Al
   Al3        1.0     0.780604     0.100585     0.814391    Uiso  ? Al
   Al4        1.0     0.881313     0.214816     0.569912    Uiso  ? Al
   Al5        1.0     0.441566     0.090637     0.326118    Uiso  ? Al
   Al6        1.0     0.107639     0.102885     0.823332    Uiso  ? Al
   Al7        1.0     0.217766     0.212647     0.567486    Uiso  ? Al
   Al8        1.0     0.782995     0.093207     0.323749    Uiso  ? Al
   Al9        1.0     0.892275     0.209718     0.070358    Uiso  ? Al
   Al10       1.0     0.436171     0.095112     0.815144    Uiso  ? Al
   Al11       1.0     0.554870     0.206480     0.568866    Uiso  ? Al
   Al12       1.0     0.112341     0.425588     0.319975    Uiso  ? Al
   Al13       1.0     0.219893     0.540697     0.073312    Uiso  ? Al
   Al14       1.0     0.776975     0.424543     0.818954    Uiso  ? Al
   Al15       1.0     0.890664     0.535286     0.564069    Uiso  ? Al
   Al16       1.0     0.443814     0.431710     0.324660    Uiso  ? Al
   Al17       1.0     0.558199     0.541820     0.069911    Uiso  ? Al
   Al18       1.0     0.221105     0.532516     0.564620    Uiso  ? Al
   Al19       1.0     0.776986     0.427052     0.319478    Uiso  ? Al
   Al20       1.0     0.890855     0.532233     0.075606    Uiso  ? Al
   Al21       1.0     0.440472     0.433162     0.814506    Uiso  ? Al
   Al22       1.0     0.561306     0.532613     0.569937    Uiso  ? Al
   Al23       1.0     0.111671     0.758421     0.321631    Uiso  ? Al
   Al24       1.0     0.449331     0.757064     0.318090    Uiso  ? Al
   Al25       1.0     0.552301     0.868106     0.074526    Uiso  ? Al
   Al26       1.0     0.117396     0.760428     0.851744    Uiso  ? Al
   Al27       1.0     0.778342     0.760016     0.314539    Uiso  ? Al
   Al28       1.0     0.894365     0.872055     0.083311    Uiso  ? Al
   Al29       1.0     0.447011     0.756060     0.822442    Uiso  ? Al
   Al30       1.0     0.559648     0.867886     0.566002    Uiso  ? Al
   Hf1        1.0     0.553555     0.206026     0.076161    Uiso  ? Hf
   Hf2        1.0     0.780795     0.759527     0.828206    Uiso  ? Hf
   Hf3        1.0     0.220277     0.872955     0.587706    Uiso  ? Hf
   Mg1        1.0     0.116581     0.423523     0.819542    Uiso  ? Mg
   Mg2        1.0     0.225678     0.877624     0.077339    Uiso  ? Mg
   Mg3        1.0     0.882076     0.875134     0.562826    Uiso  ? Mg
   N1         1.0     0.222197     0.204227     0.378123    Uiso  ? N
   N2         1.0     0.101208     0.111844     0.132220    Uiso  ? N
   N3         1.0     0.886688     0.208055     0.879808    Uiso  ? N
   N4         1.0     0.769757     0.110099     0.627655    Uiso  ? N
   N5         1.0     0.555384     0.204608     0.371466    Uiso  ? N
   N6         1.0     0.436106     0.084823     0.135305    Uiso  ? N
   N7         1.0     0.229526     0.192288     0.883331    Uiso  ? N
   N8         1.0     0.096291     0.119075     0.632079    Uiso  ? N
   N9         1.0     0.888143     0.207314     0.380014    Uiso  ? N
   N10        1.0     0.791012     0.092990     0.132320    Uiso  ? N
   N11        1.0     0.553602     0.204865     0.868333    Uiso  ? N
   N12        1.0     0.443753     0.091189     0.623442    Uiso  ? N
   N13        1.0     0.224292     0.535450     0.372998    Uiso  ? N
   N14        1.0     0.113872     0.425398     0.128433    Uiso  ? N
   N15        1.0     0.883120     0.527264     0.888075    Uiso  ? N
   N16        1.0     0.777486     0.429527     0.627772    Uiso  ? N
   N17        1.0     0.556879     0.537762     0.380415    Uiso  ? N
   N18        1.0     0.439873     0.442291     0.134105    Uiso  ? N
   N19        1.0     0.232227     0.541795     0.885313    Uiso  ? N
   N20        1.0     0.109451     0.427689     0.613607    Uiso  ? N
   N21        1.0     0.887480     0.538830     0.371208    Uiso  ? N
   N22        1.0     0.775675     0.426268     0.130144    Uiso  ? N
   N23        1.0     0.556372     0.535752     0.877765    Uiso  ? N
   N24        1.0     0.443348     0.426825     0.623579    Uiso  ? N
   N25        1.0     0.224185     0.873689     0.371895    Uiso  ? N
   N26        1.0     0.110013     0.754443     0.122781    Uiso  ? N
   N27        1.0     0.894190     0.887276     0.887173    Uiso  ? N
   N28        1.0     0.772264     0.751222     0.624335    Uiso  ? N
   N29        1.0     0.557562     0.869633     0.376773    Uiso  ? N
   N30        1.0     0.461093     0.750457     0.131891    Uiso  ? N
   N31        1.0     0.223461     0.876497     0.850600    Uiso  ? N
   N32        1.0     0.113335     0.743827     0.618131    Uiso  ? N
   N33        1.0     0.887353     0.871783     0.357574    Uiso  ? N
   N34        1.0     0.776811     0.761417     0.119106    Uiso  ? N
   N35        1.0     0.540398     0.879484     0.883111    Uiso  ? N
   N36        1.0     0.465286     0.747615     0.631467    Uiso  ? N
