
#======================================================================
# CRYSTAL DATA
#----------------------------------------------------------------------
data_VESTA_phase_1

_chemical_name_common                  'Al   Hf   Mg   N '
_cell_length_a                         9.603327
_cell_length_b                         9.620681
_cell_length_c                         10.195497
_cell_angle_alpha                      89.998230
_cell_angle_beta                       89.651604
_cell_angle_gamma                      60.075634
_cell_volume                           816.368768
_space_group_name_H-M_alt              'P 1'
_space_group_IT_number                 1

loop_
_space_group_symop_operation_xyz
   'x, y, z'

loop_
   _atom_site_label
   _atom_site_occupancy
   _atom_site_fract_x
   _atom_site_fract_y
   _atom_site_fract_z
   _atom_site_adp_type
   _atom_site_U_iso_or_equiv
   _atom_site_type_symbol
   Al1        1.0     0.114854     0.095571     0.393706    Uiso  ? Al
   Al2        1.0     0.216145     0.207467     0.152307    Uiso  ? Al
   Al3        1.0     0.783974     0.102203     0.825996    Uiso  ? Al
   Al4        1.0     0.877767     0.212921     0.576509    Uiso  ? Al
   Al5        1.0     0.443953     0.094333     0.400527    Uiso  ? Al
   Al6        1.0     0.118161     0.093973     0.904570    Uiso  ? Al
   Al7        1.0     0.218815     0.211318     0.648539    Uiso  ? Al
   Al8        1.0     0.784661     0.093479     0.335653    Uiso  ? Al
   Al9        1.0     0.892328     0.204616     0.083630    Uiso  ? Al
   Al10       1.0     0.433858     0.093298     0.892969    Uiso  ? Al
   Al11       1.0     0.546010     0.212428     0.649762    Uiso  ? Al
   Al12       1.0     0.112901     0.427048     0.397471    Uiso  ? Al
   Al13       1.0     0.217201     0.541080     0.150519    Uiso  ? Al
   Al14       1.0     0.773489     0.430598     0.897852    Uiso  ? Al
   Al15       1.0     0.887227     0.535107     0.642950    Uiso  ? Al
   Al16       1.0     0.443413     0.429172     0.400112    Uiso  ? Al
   Al17       1.0     0.557016     0.544482     0.148270    Uiso  ? Al
   Al18       1.0     0.221459     0.535709     0.648878    Uiso  ? Al
   Al19       1.0     0.772015     0.436238     0.394915    Uiso  ? Al
   Al20       1.0     0.894252     0.532043     0.154693    Uiso  ? Al
   Al21       1.0     0.437300     0.439568     0.893119    Uiso  ? Al
   Al22       1.0     0.560339     0.533724     0.647981    Uiso  ? Al
   Al23       1.0     0.115495     0.754649     0.397004    Uiso  ? Al
   Al24       1.0     0.446649     0.759015     0.396844    Uiso  ? Al
   Al25       1.0     0.554182     0.866447     0.153729    Uiso  ? Al
   Al26       1.0     0.113946     0.759194     0.905245    Uiso  ? Al
   Al27       1.0     0.776880     0.758235     0.401823    Uiso  ? Al
   Al28       1.0     0.901017     0.857272     0.155555    Uiso  ? Al
   Al29       1.0     0.444959     0.758055     0.902798    Uiso  ? Al
   Al30       1.0     0.556417     0.871622     0.642419    Uiso  ? Al
   Hf1        1.0     0.552751     0.206999     0.127126    Uiso  ? Hf
   Hf2        1.0     0.778460     0.762411     0.895027    Uiso  ? Hf
   Hf3        1.0     0.219960     0.873450     0.642801    Uiso  ? Hf
   Mg1        1.0     0.115994     0.422843     0.898398    Uiso  ? Mg
   Mg2        1.0     0.223476     0.871080     0.150011    Uiso  ? Mg
   Mg3        1.0     0.886641     0.870568     0.632474    Uiso  ? Mg
   N1         1.0     0.225622     0.204640     0.341251    Uiso  ? N
   N2         1.0     0.112257     0.104211     0.091819    Uiso  ? N
   N3         1.0     0.888017     0.204917     0.890457    Uiso  ? N
   N4         1.0     0.768259     0.115574     0.638866    Uiso  ? N
   N5         1.0     0.550852     0.207681     0.338791    Uiso  ? N
   N6         1.0     0.436199     0.080821     0.084113    Uiso  ? N
   N7         1.0     0.226421     0.191912     0.831523    Uiso  ? N
   N8         1.0     0.104462     0.112023     0.585416    Uiso  ? N
   N9         1.0     0.885568     0.206962     0.383101    Uiso  ? N
   N10        1.0     0.798870     0.084503     0.141499    Uiso  ? N
   N11        1.0     0.548573     0.208480     0.855120    Uiso  ? N
   N12        1.0     0.444129     0.095492     0.589334    Uiso  ? N
   N13        1.0     0.226178     0.535475     0.339401    Uiso  ? N
   N14        1.0     0.113960     0.425407     0.103639    Uiso  ? N
   N15        1.0     0.882286     0.530623     0.829946    Uiso  ? N
   N16        1.0     0.771725     0.435703     0.584356    Uiso  ? N
   N17        1.0     0.553494     0.539336     0.337493    Uiso  ? N
   N18        1.0     0.435683     0.449142     0.083467    Uiso  ? N
   N19        1.0     0.226464     0.549009     0.833486    Uiso  ? N
   N20        1.0     0.110971     0.427718     0.588008    Uiso  ? N
   N21        1.0     0.889541     0.538020     0.342206    Uiso  ? N
   N22        1.0     0.775361     0.433480     0.091972    Uiso  ? N
   N23        1.0     0.556129     0.539086     0.836487    Uiso  ? N
   N24        1.0     0.443959     0.427593     0.589436    Uiso  ? N
   N25        1.0     0.223392     0.872220     0.359905    Uiso  ? N
   N26        1.0     0.107146     0.750670     0.090294    Uiso  ? N
   N27        1.0     0.899735     0.878440     0.844617    Uiso  ? N
   N28        1.0     0.769870     0.752415     0.588256    Uiso  ? N
   N29        1.0     0.554901     0.873248     0.341760    Uiso  ? N
   N30        1.0     0.461464     0.753159     0.086566    Uiso  ? N
   N31        1.0     0.223676     0.871409     0.851130    Uiso  ? N
   N32        1.0     0.119660     0.743046     0.580541    Uiso  ? N
   N33        1.0     0.892357     0.864607     0.347291    Uiso  ? N
   N34        1.0     0.778590     0.759650     0.102421    Uiso  ? N
   N35        1.0     0.540824     0.877936     0.831304    Uiso  ? N
   N36        1.0     0.459210     0.751198     0.585701    Uiso  ? N
