
#======================================================================
# CRYSTAL DATA
#----------------------------------------------------------------------
data_VESTA_phase_1

_chemical_name_common                  'Al   Hf   Mg   N                      '
_cell_length_a                         9.613240
_cell_length_b                         9.640013
_cell_length_c                         10.097066
_cell_angle_alpha                      90.029739
_cell_angle_beta                       89.709923
_cell_angle_gamma                      59.975563
_cell_volume                           810.136068
_space_group_name_H-M_alt              'P 1'
_space_group_IT_number                 1

loop_
_space_group_symop_operation_xyz
   'x, y, z'

loop_
   _atom_site_label
   _atom_site_occupancy
   _atom_site_fract_x
   _atom_site_fract_y
   _atom_site_fract_z
   _atom_site_adp_type
   _atom_site_U_iso_or_equiv
   _atom_site_type_symbol
   Al1        1.0     0.110153     0.099592     0.400367    Uiso  ? Al
   Al2        1.0     0.216327     0.207237     0.154872    Uiso  ? Al
   Al3        1.0     0.779804     0.098222     0.833674    Uiso  ? Al
   Al4        1.0     0.884259     0.219919     0.649028    Uiso  ? Al
   Al5        1.0     0.442513     0.093910     0.404684    Uiso  ? Al
   Al6        1.0     0.108665     0.099253     0.907927    Uiso  ? Al
   Al7        1.0     0.218948     0.211609     0.652819    Uiso  ? Al
   Al8        1.0     0.781005     0.094185     0.364652    Uiso  ? Al
   Al9        1.0     0.896143     0.208791     0.154232    Uiso  ? Al
   Al10       1.0     0.432595     0.092748     0.897339    Uiso  ? Al
   Al11       1.0     0.546077     0.211691     0.650659    Uiso  ? Al
   Al12       1.0     0.113134     0.427029     0.401273    Uiso  ? Al
   Al13       1.0     0.217864     0.540811     0.154555    Uiso  ? Al
   Al14       1.0     0.777248     0.424562     0.904279    Uiso  ? Al
   Al15       1.0     0.887724     0.535493     0.648009    Uiso  ? Al
   Al16       1.0     0.443191     0.430105     0.405172    Uiso  ? Al
   Al17       1.0     0.558214     0.542822     0.152850    Uiso  ? Al
   Al18       1.0     0.221965     0.535573     0.654179    Uiso  ? Al
   Al19       1.0     0.776543     0.429481     0.403043    Uiso  ? Al
   Al20       1.0     0.894324     0.532502     0.158689    Uiso  ? Al
   Al21       1.0     0.438115     0.439227     0.897800    Uiso  ? Al
   Al22       1.0     0.560406     0.533530     0.652791    Uiso  ? Al
   Al23       1.0     0.116376     0.754467     0.401100    Uiso  ? Al
   Al24       1.0     0.447360     0.758163     0.400722    Uiso  ? Al
   Al25       1.0     0.554457     0.866148     0.158214    Uiso  ? Al
   Al26       1.0     0.113957     0.759628     0.910043    Uiso  ? Al
   Al27       1.0     0.776685     0.757020     0.406575    Uiso  ? Al
   Al28       1.0     0.899142     0.860986     0.160894    Uiso  ? Al
   Al29       1.0     0.444119     0.757963     0.907311    Uiso  ? Al
   Al30       1.0     0.555753     0.871397     0.647143    Uiso  ? Al
   Hf1        1.0     0.555462     0.205040     0.133095    Uiso  ? Hf
   Hf2        1.0     0.778245     0.761840     0.898708    Uiso  ? Hf
   Hf3        1.0     0.219711     0.874450     0.645256    Uiso  ? Hf
   Mg1        1.0     0.116269     0.422855     0.902755    Uiso  ? Mg
   Mg2        1.0     0.222309     0.873054     0.153146    Uiso  ? Mg
   Mg3        1.0     0.887658     0.869462     0.634303    Uiso  ? Mg
   N1         1.0     0.225055     0.204415     0.345734    Uiso  ? N
   N2         1.0     0.105273     0.108951     0.093839    Uiso  ? N
   N3         1.0     0.891566     0.210056     0.842902    Uiso  ? N
   N4         1.0     0.767441     0.113319     0.627894    Uiso  ? N
   N5         1.0     0.551055     0.207511     0.347068    Uiso  ? N
   N6         1.0     0.436293     0.080374     0.089418    Uiso  ? N
   N7         1.0     0.224962     0.191759     0.837085    Uiso  ? N
   N8         1.0     0.099658     0.115956     0.589026    Uiso  ? N
   N9         1.0     0.890577     0.210727     0.346946    Uiso  ? N
   N10        1.0     0.797976     0.083099     0.135118    Uiso  ? N
   N11        1.0     0.548433     0.207667     0.857327    Uiso  ? N
   N12        1.0     0.442981     0.094815     0.594321    Uiso  ? N
   N13        1.0     0.226396     0.535536     0.344580    Uiso  ? N
   N14        1.0     0.114140     0.425605     0.108901    Uiso  ? N
   N15        1.0     0.882230     0.529992     0.836630    Uiso  ? N
   N16        1.0     0.774748     0.431125     0.590615    Uiso  ? N
   N17        1.0     0.555864     0.537491     0.343888    Uiso  ? N
   N18        1.0     0.436936     0.447817     0.089203    Uiso  ? N
   N19        1.0     0.226612     0.548857     0.839919    Uiso  ? N
   N20        1.0     0.111278     0.428071     0.593409    Uiso  ? N
   N21        1.0     0.889087     0.537412     0.348157    Uiso  ? N
   N22        1.0     0.778602     0.427286     0.095928    Uiso  ? N
   N23        1.0     0.557391     0.538169     0.842746    Uiso  ? N
   N24        1.0     0.443630     0.428107     0.595264    Uiso  ? N
   N25        1.0     0.222529     0.874269     0.366717    Uiso  ? N
   N26        1.0     0.106676     0.751180     0.096778    Uiso  ? N
   N27        1.0     0.899963     0.877572     0.847661    Uiso  ? N
   N28        1.0     0.769613     0.751826     0.594669    Uiso  ? N
   N29        1.0     0.555005     0.872972     0.347305    Uiso  ? N
   N30        1.0     0.461638     0.752401     0.092791    Uiso  ? N
   N31        1.0     0.221984     0.872910     0.855861    Uiso  ? N
   N32        1.0     0.121123     0.742218     0.586116    Uiso  ? N
   N33        1.0     0.891473     0.865989     0.354899    Uiso  ? N
   N34        1.0     0.778944     0.759268     0.107798    Uiso  ? N
   N35        1.0     0.539970     0.877590     0.836812    Uiso  ? N
   N36        1.0     0.459920     0.750185     0.591048    Uiso  ? N
