
#======================================================================
# CRYSTAL DATA
#----------------------------------------------------------------------
data_VESTA_phase_1

_chemical_name_common                  'Al   Hf   Mg   N                      '
_cell_length_a                         9.580496
_cell_length_b                         9.599016
_cell_length_c                         10.120157
_cell_angle_alpha                      90.039787
_cell_angle_beta                       89.958252
_cell_angle_gamma                      60.000542
_cell_volume                           805.999056
_space_group_name_H-M_alt              'P 1'
_space_group_IT_number                 1

loop_
_space_group_symop_operation_xyz
   'x, y, z'

loop_
   _atom_site_label
   _atom_site_occupancy
   _atom_site_fract_x
   _atom_site_fract_y
   _atom_site_fract_z
   _atom_site_adp_type
   _atom_site_U_iso_or_equiv
   _atom_site_type_symbol
   Al1        1.0     0.107573     0.100162     0.403698    Uiso  ? Al
   Al2        1.0     0.214773     0.208189     0.158494    Uiso  ? Al
   Al3        1.0     0.785629     0.094489     0.902830    Uiso  ? Al
   Al4        1.0     0.881373     0.214498     0.656266    Uiso  ? Al
   Al5        1.0     0.442136     0.093450     0.410553    Uiso  ? Al
   Al6        1.0     0.110015     0.098630     0.910386    Uiso  ? Al
   Al7        1.0     0.219869     0.210848     0.656419    Uiso  ? Al
   Al8        1.0     0.779397     0.096826     0.411328    Uiso  ? Al
   Al9        1.0     0.893674     0.208032     0.156415    Uiso  ? Al
   Al10       1.0     0.435346     0.093610     0.900355    Uiso  ? Al
   Al11       1.0     0.555830     0.206572     0.657999    Uiso  ? Al
   Al12       1.0     0.112712     0.427288     0.405386    Uiso  ? Al
   Al13       1.0     0.215959     0.542522     0.158749    Uiso  ? Al
   Al14       1.0     0.777554     0.423934     0.907071    Uiso  ? Al
   Al15       1.0     0.888701     0.534252     0.650444    Uiso  ? Al
   Al16       1.0     0.442705     0.431035     0.411515    Uiso  ? Al
   Al17       1.0     0.557638     0.542892     0.156380    Uiso  ? Al
   Al18       1.0     0.222626     0.534953     0.657753    Uiso  ? Al
   Al19       1.0     0.776868     0.427241     0.406630    Uiso  ? Al
   Al20       1.0     0.892924     0.533725     0.163093    Uiso  ? Al
   Al21       1.0     0.440354     0.435845     0.900725    Uiso  ? Al
   Al22       1.0     0.561531     0.532898     0.656965    Uiso  ? Al
   Al23       1.0     0.112641     0.757248     0.404228    Uiso  ? Al
   Al24       1.0     0.447949     0.757930     0.404508    Uiso  ? Al
   Al25       1.0     0.553839     0.867309     0.161730    Uiso  ? Al
   Al26       1.0     0.115569     0.758255     0.913611    Uiso  ? Al
   Al27       1.0     0.777417     0.759585     0.409803    Uiso  ? Al
   Al28       1.0     0.895676     0.867925     0.162211    Uiso  ? Al
   Al29       1.0     0.444043     0.757951     0.910847    Uiso  ? Al
   Al30       1.0     0.557361     0.870744     0.651109    Uiso  ? Al
   Hf1        1.0     0.553646     0.206626     0.147364    Uiso  ? Hf
   Hf2        1.0     0.779288     0.759380     0.902582    Uiso  ? Hf
   Hf3        1.0     0.220498     0.873615     0.647707    Uiso  ? Hf
   Mg1        1.0     0.116955     0.422224     0.906828    Uiso  ? Mg
   Mg2        1.0     0.222520     0.873542     0.157921    Uiso  ? Mg
   Mg3        1.0     0.886059     0.874435     0.648422    Uiso  ? Mg
   N1         1.0     0.224245     0.204454     0.349263    Uiso  ? N
   N2         1.0     0.103862     0.109292     0.096334    Uiso  ? N
   N3         1.0     0.889091     0.206751     0.846493    Uiso  ? N
   N4         1.0     0.769414     0.111960     0.596775    Uiso  ? N
   N5         1.0     0.553915     0.206115     0.353864    Uiso  ? N
   N6         1.0     0.435813     0.083750     0.092862    Uiso  ? N
   N7         1.0     0.226302     0.191419     0.840493    Uiso  ? N
   N8         1.0     0.097839     0.116225     0.592765    Uiso  ? N
   N9         1.0     0.886922     0.207277     0.345633    Uiso  ? N
   N10        1.0     0.794594     0.086882     0.095430    Uiso  ? N
   N11        1.0     0.555509     0.204219     0.856840    Uiso  ? N
   N12        1.0     0.444638     0.094286     0.599241    Uiso  ? N
   N13        1.0     0.225572     0.536503     0.348494    Uiso  ? N
   N14        1.0     0.112274     0.427054     0.112460    Uiso  ? N
   N15        1.0     0.883557     0.527784     0.838823    Uiso  ? N
   N16        1.0     0.776110     0.427806     0.594676    Uiso  ? N
   N17        1.0     0.555554     0.537195     0.347075    Uiso  ? N
   N18        1.0     0.436056     0.445914     0.092648    Uiso  ? N
   N19        1.0     0.227573     0.547646     0.843399    Uiso  ? N
   N20        1.0     0.112094     0.427303     0.596448    Uiso  ? N
   N21        1.0     0.888181     0.537973     0.352168    Uiso  ? N
   N22        1.0     0.777728     0.427842     0.098637    Uiso  ? N
   N23        1.0     0.557499     0.538109     0.846699    Uiso  ? N
   N24        1.0     0.445224     0.426568     0.600838    Uiso  ? N
   N25        1.0     0.222436     0.874331     0.370813    Uiso  ? N
   N26        1.0     0.105148     0.753568     0.100273    Uiso  ? N
   N27        1.0     0.899293     0.878607     0.853075    Uiso  ? N
   N28        1.0     0.771813     0.752720     0.598159    Uiso  ? N
   N29        1.0     0.554698     0.873534     0.350443    Uiso  ? N
   N30        1.0     0.460567     0.753203     0.096142    Uiso  ? N
   N31        1.0     0.222178     0.872597     0.858132    Uiso  ? N
   N32        1.0     0.118166     0.743308     0.589357    Uiso  ? N
   N33        1.0     0.887177     0.874278     0.352705    Uiso  ? N
   N34        1.0     0.777745     0.761190     0.110972    Uiso  ? N
   N35        1.0     0.540743     0.877042     0.840742    Uiso  ? N
   N36        1.0     0.461487     0.749336     0.594175    Uiso  ? N
