
#======================================================================
# CRYSTAL DATA
#----------------------------------------------------------------------
data_VESTA_phase_1

_chemical_name_common                  'Al   Hf   Mg   N                      '
_cell_length_a                         9.621449
_cell_length_b                         9.645714
_cell_length_c                         10.095380
_cell_angle_alpha                      89.993958
_cell_angle_beta                       89.645042
_cell_angle_gamma                      60.003132
_cell_volume                           811.392346
_space_group_name_H-M_alt              'P 1'
_space_group_IT_number                 1

loop_
_space_group_symop_operation_xyz
   'x, y, z'

loop_
   _atom_site_label
   _atom_site_occupancy
   _atom_site_fract_x
   _atom_site_fract_y
   _atom_site_fract_z
   _atom_site_adp_type
   _atom_site_U_iso_or_equiv
   _atom_site_type_symbol
   Al1        1.0     0.111498     0.098553     0.398397    Uiso  ? Al
   Al2        1.0     0.217151     0.207515     0.155910    Uiso  ? Al
   Al3        1.0     0.781676     0.099180     0.831644    Uiso  ? Al
   Al4        1.0     0.882356     0.218342     0.636133    Uiso  ? Al
   Al5        1.0     0.443260     0.094449     0.404831    Uiso  ? Al
   Al6        1.0     0.109152     0.098790     0.909367    Uiso  ? Al
   Al7        1.0     0.218343     0.211552     0.653222    Uiso  ? Al
   Al8        1.0     0.781854     0.093140     0.350456    Uiso  ? Al
   Al9        1.0     0.896755     0.209476     0.149933    Uiso  ? Al
   Al10       1.0     0.432416     0.092614     0.897527    Uiso  ? Al
   Al11       1.0     0.545233     0.211858     0.652442    Uiso  ? Al
   Al12       1.0     0.113089     0.427128     0.401794    Uiso  ? Al
   Al13       1.0     0.217952     0.540654     0.155020    Uiso  ? Al
   Al14       1.0     0.777262     0.424452     0.904373    Uiso  ? Al
   Al15       1.0     0.887383     0.535119     0.648356    Uiso  ? Al
   Al16       1.0     0.443538     0.429247     0.404918    Uiso  ? Al
   Al17       1.0     0.557432     0.543753     0.153176    Uiso  ? Al
   Al18       1.0     0.221742     0.535517     0.654252    Uiso  ? Al
   Al19       1.0     0.775241     0.431470     0.400806    Uiso  ? Al
   Al20       1.0     0.894503     0.533181     0.158900    Uiso  ? Al
   Al21       1.0     0.437747     0.439898     0.897823    Uiso  ? Al
   Al22       1.0     0.559897     0.533757     0.652969    Uiso  ? Al
   Al23       1.0     0.116380     0.754332     0.401482    Uiso  ? Al
   Al24       1.0     0.446955     0.758557     0.401214    Uiso  ? Al
   Al25       1.0     0.554510     0.866322     0.158633    Uiso  ? Al
   Al26       1.0     0.113846     0.759518     0.910041    Uiso  ? Al
   Al27       1.0     0.776654     0.757408     0.407180    Uiso  ? Al
   Al28       1.0     0.900399     0.858297     0.160646    Uiso  ? Al
   Al29       1.0     0.444405     0.757988     0.907505    Uiso  ? Al
   Al30       1.0     0.555433     0.871613     0.647365    Uiso  ? Al
   Hf1        1.0     0.554952     0.205555     0.129766    Uiso  ? Hf
   Hf2        1.0     0.778073     0.762191     0.898215    Uiso  ? Hf
   Hf3        1.0     0.219402     0.874508     0.646275    Uiso  ? Hf
   Mg1        1.0     0.115917     0.422738     0.902709    Uiso  ? Mg
   Mg2        1.0     0.223368     0.871571     0.153563    Uiso  ? Mg
   Mg3        1.0     0.887279     0.869537     0.634489    Uiso  ? Mg
   N1         1.0     0.225766     0.204716     0.346301    Uiso  ? N
   N2         1.0     0.107754     0.107436     0.096038    Uiso  ? N
   N3         1.0     0.891829     0.209203     0.850496    Uiso  ? N
   N4         1.0     0.766054     0.112960     0.633575    Uiso  ? N
   N5         1.0     0.550541     0.207872     0.344766    Uiso  ? N
   N6         1.0     0.436314     0.080374     0.089743    Uiso  ? N
   N7         1.0     0.225027     0.191425     0.837520    Uiso  ? N
   N8         1.0     0.100574     0.114965     0.587784    Uiso  ? N
   N9         1.0     0.890306     0.211099     0.349640    Uiso  ? N
   N10        1.0     0.798544     0.082415     0.141864    Uiso  ? N
   N11        1.0     0.548716     0.207673     0.860190    Uiso  ? N
   N12        1.0     0.442755     0.095180     0.594881    Uiso  ? N
   N13        1.0     0.226438     0.535448     0.345074    Uiso  ? N
   N14        1.0     0.114252     0.425583     0.109062    Uiso  ? N
   N15        1.0     0.881933     0.530211     0.836789    Uiso  ? N
   N16        1.0     0.773302     0.432637     0.588948    Uiso  ? N
   N17        1.0     0.554649     0.538460     0.343813    Uiso  ? N
   N18        1.0     0.436490     0.448650     0.089362    Uiso  ? N
   N19        1.0     0.226561     0.548750     0.839963    Uiso  ? N
   N20        1.0     0.110856     0.427991     0.593900    Uiso  ? N
   N21        1.0     0.889281     0.538225     0.348132    Uiso  ? N
   N22        1.0     0.777893     0.429001     0.097115    Uiso  ? N
   N23        1.0     0.557330     0.538406     0.842861    Uiso  ? N
   N24        1.0     0.443682     0.427614     0.595511    Uiso  ? N
   N25        1.0     0.222925     0.873449     0.366264    Uiso  ? N
   N26        1.0     0.107209     0.750635     0.096740    Uiso  ? N
   N27        1.0     0.899990     0.877865     0.848651    Uiso  ? N
   N28        1.0     0.769381     0.751727     0.595331    Uiso  ? N
   N29        1.0     0.555052     0.873138     0.347827    Uiso  ? N
   N30        1.0     0.461945     0.752716     0.092871    Uiso  ? N
   N31        1.0     0.222480     0.872509     0.856743    Uiso  ? N
   N32        1.0     0.120940     0.742413     0.586628    Uiso  ? N
   N33        1.0     0.892090     0.864779     0.354754    Uiso  ? N
   N34        1.0     0.778742     0.759493     0.107478    Uiso  ? N
   N35        1.0     0.539821     0.877865     0.836998    Uiso  ? N
   N36        1.0     0.459269     0.750601     0.591569    Uiso  ? N
