
#======================================================================
# CRYSTAL DATA
#----------------------------------------------------------------------
data_VESTA_phase_1

_chemical_name_common                  'Al   Hf   Mg   N                      '
_cell_length_a                         9.599741
_cell_length_b                         9.618443
_cell_length_c                         10.223712
_cell_angle_alpha                      90.009659
_cell_angle_beta                       89.637009
_cell_angle_gamma                      60.070858
_cell_volume                           818.090285
_space_group_name_H-M_alt              'P 1'
_space_group_IT_number                 1

loop_
_space_group_symop_operation_xyz
   'x, y, z'

loop_
   _atom_site_label
   _atom_site_occupancy
   _atom_site_fract_x
   _atom_site_fract_y
   _atom_site_fract_z
   _atom_site_adp_type
   _atom_site_U_iso_or_equiv
   _atom_site_type_symbol
   Al1        1.0     0.113862     0.095589     0.396222    Uiso  ? Al
   Al2        1.0     0.213656     0.207823     0.152555    Uiso  ? Al
   Al3        1.0     0.774907     0.106110     0.827156    Uiso  ? Al
   Al4        1.0     0.878790     0.213172     0.579606    Uiso  ? Al
   Al5        1.0     0.440493     0.090542     0.394634    Uiso  ? Al
   Al6        1.0     0.118233     0.094142     0.902878    Uiso  ? Al
   Al7        1.0     0.221381     0.210859     0.649109    Uiso  ? Al
   Al8        1.0     0.785601     0.094009     0.334533    Uiso  ? Al
   Al9        1.0     0.891790     0.204259     0.080906    Uiso  ? Al
   Al10       1.0     0.435407     0.092716     0.897444    Uiso  ? Al
   Al11       1.0     0.555399     0.207289     0.588075    Uiso  ? Al
   Al12       1.0     0.112073     0.427376     0.397834    Uiso  ? Al
   Al13       1.0     0.214966     0.542733     0.150777    Uiso  ? Al
   Al14       1.0     0.773938     0.430392     0.896863    Uiso  ? Al
   Al15       1.0     0.887861     0.535610     0.643510    Uiso  ? Al
   Al16       1.0     0.439829     0.436338     0.394099    Uiso  ? Al
   Al17       1.0     0.557205     0.545315     0.148379    Uiso  ? Al
   Al18       1.0     0.223649     0.534056     0.649150    Uiso  ? Al
   Al19       1.0     0.772402     0.435874     0.396580    Uiso  ? Al
   Al20       1.0     0.893627     0.531961     0.154804    Uiso  ? Al
   Al21       1.0     0.438845     0.438140     0.897447    Uiso  ? Al
   Al22       1.0     0.560301     0.533079     0.648578    Uiso  ? Al
   Al23       1.0     0.114005     0.755757     0.398252    Uiso  ? Al
   Al24       1.0     0.446742     0.758839     0.397785    Uiso  ? Al
   Al25       1.0     0.553781     0.865378     0.154249    Uiso  ? Al
   Al26       1.0     0.113749     0.759421     0.904767    Uiso  ? Al
   Al27       1.0     0.777168     0.758070     0.401906    Uiso  ? Al
   Al28       1.0     0.900626     0.857992     0.156548    Uiso  ? Al
   Al29       1.0     0.445081     0.757877     0.902735    Uiso  ? Al
   Al30       1.0     0.557136     0.871411     0.642795    Uiso  ? Al
   Hf1        1.0     0.554492     0.205910     0.114369    Uiso  ? Hf
   Hf2        1.0     0.778789     0.762898     0.896225    Uiso  ? Hf
   Hf3        1.0     0.220793     0.872562     0.643485    Uiso  ? Hf
   Mg1        1.0     0.116747     0.422563     0.898722    Uiso  ? Mg
   Mg2        1.0     0.222752     0.871842     0.149844    Uiso  ? Mg
   Mg3        1.0     0.887343     0.869833     0.635133    Uiso  ? Mg
   N1         1.0     0.222357     0.205391     0.340718    Uiso  ? N
   N2         1.0     0.111210     0.104373     0.089465    Uiso  ? N
   N3         1.0     0.887611     0.204390     0.887578    Uiso  ? N
   N4         1.0     0.764704     0.117165     0.639786    Uiso  ? N
   N5         1.0     0.553915     0.206100     0.355807    Uiso  ? N
   N6         1.0     0.433063     0.079853     0.090530    Uiso  ? N
   N7         1.0     0.229535     0.191287     0.831687    Uiso  ? N
   N8         1.0     0.105348     0.111707     0.587578    Uiso  ? N
   N9         1.0     0.885492     0.206662     0.386903    Uiso  ? N
   N10        1.0     0.799186     0.085869     0.145329    Uiso  ? N
   N11        1.0     0.557157     0.203698     0.893815    Uiso  ? N
   N12        1.0     0.443389     0.092485     0.584138    Uiso  ? N
   N13        1.0     0.223012     0.537595     0.338654    Uiso  ? N
   N14        1.0     0.113051     0.425783     0.103484    Uiso  ? N
   N15        1.0     0.882721     0.531262     0.829919    Uiso  ? N
   N16        1.0     0.772006     0.436016     0.585747    Uiso  ? N
   N17        1.0     0.554744     0.540754     0.336680    Uiso  ? N
   N18        1.0     0.432834     0.452876     0.089452    Uiso  ? N
   N19        1.0     0.229249     0.547186     0.833650    Uiso  ? N
   N20        1.0     0.112039     0.427153     0.588056    Uiso  ? N
   N21        1.0     0.889204     0.537730     0.342273    Uiso  ? N
   N22        1.0     0.775191     0.433293     0.090580    Uiso  ? N
   N23        1.0     0.555975     0.538070     0.836697    Uiso  ? N
   N24        1.0     0.443049     0.431279     0.583886    Uiso  ? N
   N25        1.0     0.223161     0.872408     0.360636    Uiso  ? N
   N26        1.0     0.105651     0.751906     0.089311    Uiso  ? N
   N27        1.0     0.898901     0.879597     0.843876    Uiso  ? N
   N28        1.0     0.770321     0.752614     0.587804    Uiso  ? N
   N29        1.0     0.555527     0.870603     0.341024    Uiso  ? N
   N30        1.0     0.461084     0.753216     0.085696    Uiso  ? N
   N31        1.0     0.224190     0.871000     0.850654    Uiso  ? N
   N32        1.0     0.119901     0.742544     0.581387    Uiso  ? N
   N33        1.0     0.892203     0.864728     0.347605    Uiso  ? N
   N34        1.0     0.778142     0.760359     0.103063    Uiso  ? N
   N35        1.0     0.541293     0.878614     0.831566    Uiso  ? N
   N36        1.0     0.459943     0.750708     0.586276    Uiso  ? N
