
#======================================================================
# CRYSTAL DATA
#----------------------------------------------------------------------
data_VESTA_phase_1

_chemical_name_common                  'Al   Hf   Mg   N                      '
_cell_length_a                         9.609515
_cell_length_b                         9.629498
_cell_length_c                         10.232989
_cell_angle_alpha                      89.993271
_cell_angle_beta                       89.820518
_cell_angle_gamma                      60.077904
_cell_volume                           820.683978
_space_group_name_H-M_alt              'P 1'
_space_group_IT_number                 1

loop_
_space_group_symop_operation_xyz
   'x, y, z'

loop_
   _atom_site_label
   _atom_site_occupancy
   _atom_site_fract_x
   _atom_site_fract_y
   _atom_site_fract_z
   _atom_site_adp_type
   _atom_site_U_iso_or_equiv
   _atom_site_type_symbol
   Al1        1.0     0.107354     0.102380     0.333182    Uiso  ? Al
   Al2        1.0     0.217586     0.200860     0.084699    Uiso  ? Al
   Al3        1.0     0.774963     0.105565     0.826998    Uiso  ? Al
   Al4        1.0     0.883519     0.211438     0.582566    Uiso  ? Al
   Al5        1.0     0.439925     0.092196     0.349652    Uiso  ? Al
   Al6        1.0     0.105891     0.103126     0.836557    Uiso  ? Al
   Al7        1.0     0.219351     0.210304     0.581964    Uiso  ? Al
   Al8        1.0     0.786662     0.092976     0.338770    Uiso  ? Al
   Al9        1.0     0.897821     0.199656     0.084216    Uiso  ? Al
   Al10       1.0     0.435734     0.101543     0.833794    Uiso  ? Al
   Al11       1.0     0.557612     0.205099     0.576867    Uiso  ? Al
   Al12       1.0     0.109017     0.434034     0.396566    Uiso  ? Al
   Al13       1.0     0.214708     0.542018     0.149057    Uiso  ? Al
   Al14       1.0     0.773588     0.429907     0.900699    Uiso  ? Al
   Al15       1.0     0.887421     0.535621     0.645171    Uiso  ? Al
   Al16       1.0     0.439984     0.437710     0.396320    Uiso  ? Al
   Al17       1.0     0.558193     0.544168     0.147752    Uiso  ? Al
   Al18       1.0     0.224675     0.533866     0.649549    Uiso  ? Al
   Al19       1.0     0.774069     0.433535     0.398769    Uiso  ? Al
   Al20       1.0     0.895106     0.529211     0.155462    Uiso  ? Al
   Al21       1.0     0.437313     0.441015     0.897303    Uiso  ? Al
   Al22       1.0     0.562140     0.530036     0.650019    Uiso  ? Al
   Al23       1.0     0.113300     0.755250     0.398560    Uiso  ? Al
   Al24       1.0     0.450511     0.755540     0.399658    Uiso  ? Al
   Al25       1.0     0.557156     0.860935     0.158963    Uiso  ? Al
   Al26       1.0     0.113224     0.762207     0.901210    Uiso  ? Al
   Al27       1.0     0.779538     0.755793     0.404260    Uiso  ? Al
   Al28       1.0     0.900282     0.858546     0.157137    Uiso  ? Al
   Al29       1.0     0.441469     0.761620     0.899745    Uiso  ? Al
   Al30       1.0     0.560610     0.866367     0.641783    Uiso  ? Al
   Hf1        1.0     0.555861     0.203064     0.103724    Uiso  ? Hf
   Hf2        1.0     0.776976     0.762738     0.897985    Uiso  ? Hf
   Hf3        1.0     0.222571     0.870923     0.627647    Uiso  ? Hf
   Mg1        1.0     0.113051     0.430007     0.894529    Uiso  ? Mg
   Mg2        1.0     0.226474     0.865912     0.145748    Uiso  ? Mg
   Mg3        1.0     0.886687     0.871111     0.637085    Uiso  ? Mg
   N1         1.0     0.221586     0.203262     0.394631    Uiso  ? N
   N2         1.0     0.101688     0.110412     0.149924    Uiso  ? N
   N3         1.0     0.889850     0.200805     0.895325    Uiso  ? N
   N4         1.0     0.764459     0.119363     0.641648    Uiso  ? N
   N5         1.0     0.558822     0.202843     0.376260    Uiso  ? N
   N6         1.0     0.432853     0.086689     0.148133    Uiso  ? N
   N7         1.0     0.230561     0.185949     0.897672    Uiso  ? N
   N8         1.0     0.095201     0.122660     0.646965    Uiso  ? N
   N9         1.0     0.891475     0.201887     0.394614    Uiso  ? N
   N10        1.0     0.796693     0.087630     0.149538    Uiso  ? N
   N11        1.0     0.555471     0.201569     0.893465    Uiso  ? N
   N12        1.0     0.443035     0.097924     0.626036    Uiso  ? N
   N13        1.0     0.224262     0.537981     0.336958    Uiso  ? N
   N14        1.0     0.111451     0.427645     0.103435    Uiso  ? N
   N15        1.0     0.880620     0.530769     0.831174    Uiso  ? N
   N16        1.0     0.772718     0.435388     0.586469    Uiso  ? N
   N17        1.0     0.556322     0.538756     0.335919    Uiso  ? N
   N18        1.0     0.433218     0.451762     0.089531    Uiso  ? N
   N19        1.0     0.229181     0.548033     0.833575    Uiso  ? N
   N20        1.0     0.107338     0.435803     0.589584    Uiso  ? N
   N21        1.0     0.888970     0.536653     0.342227    Uiso  ? N
   N22        1.0     0.775896     0.431482     0.091624    Uiso  ? N
   N23        1.0     0.556868     0.537014     0.838219    Uiso  ? N
   N24        1.0     0.442477     0.432678     0.584940    Uiso  ? N
   N25        1.0     0.223498     0.874152     0.372105    Uiso  ? N
   N26        1.0     0.105034     0.752942     0.087366    Uiso  ? N
   N27        1.0     0.896116     0.880095     0.845446    Uiso  ? N
   N28        1.0     0.772499     0.752127     0.589023    Uiso  ? N
   N29        1.0     0.560395     0.863400     0.347142    Uiso  ? N
   N30        1.0     0.461351     0.754232     0.084215    Uiso  ? N
   N31        1.0     0.223855     0.869508     0.840745    Uiso  ? N
   N32        1.0     0.117188     0.741534     0.581233    Uiso  ? N
   N33        1.0     0.893198     0.862986     0.347651    Uiso  ? N
   N34        1.0     0.777832     0.760330     0.104481    Uiso  ? N
   N35        1.0     0.542536     0.875237     0.831187    Uiso  ? N
   N36        1.0     0.464926     0.746234     0.586636    Uiso  ? N
