
#======================================================================
# CRYSTAL DATA
#----------------------------------------------------------------------
data_VESTA_phase_1

_chemical_name_common                  'Al   Hf   Mg   N                      '
_cell_length_a                         9.631856
_cell_length_b                         9.658802
_cell_length_c                         10.071860
_cell_angle_alpha                      89.785233
_cell_angle_beta                       89.854980
_cell_angle_gamma                      60.047470
_cell_volume                           811.854000
_space_group_name_H-M_alt              'P 1'
_space_group_IT_number                 1

loop_
_space_group_symop_operation_xyz
   'x, y, z'

loop_
   _atom_site_label
   _atom_site_occupancy
   _atom_site_fract_x
   _atom_site_fract_y
   _atom_site_fract_z
   _atom_site_adp_type
   _atom_site_U_iso_or_equiv
   _atom_site_type_symbol
   Al1        1.0     0.108711     0.098785     0.319210    Uiso  ? Al
   Al2        1.0     0.216316     0.204601     0.070085    Uiso  ? Al
   Al3        1.0     0.780198     0.100608     0.813195    Uiso  ? Al
   Al4        1.0     0.881280     0.215834     0.568874    Uiso  ? Al
   Al5        1.0     0.441509     0.090958     0.325761    Uiso  ? Al
   Al6        1.0     0.106678     0.102458     0.822641    Uiso  ? Al
   Al7        1.0     0.218113     0.213499     0.566747    Uiso  ? Al
   Al8        1.0     0.784355     0.092480     0.322364    Uiso  ? Al
   Al9        1.0     0.892424     0.209538     0.070093    Uiso  ? Al
   Al10       1.0     0.436145     0.095003     0.815088    Uiso  ? Al
   Al11       1.0     0.555456     0.206904     0.566786    Uiso  ? Al
   Al12       1.0     0.110722     0.424801     0.321436    Uiso  ? Al
   Al13       1.0     0.218046     0.542071     0.112777    Uiso  ? Al
   Al14       1.0     0.777081     0.424283     0.818455    Uiso  ? Al
   Al15       1.0     0.890214     0.535774     0.563603    Uiso  ? Al
   Al16       1.0     0.445265     0.431343     0.325164    Uiso  ? Al
   Al17       1.0     0.559443     0.541932     0.069276    Uiso  ? Al
   Al18       1.0     0.221657     0.533303     0.613155    Uiso  ? Al
   Al19       1.0     0.776963     0.427125     0.318966    Uiso  ? Al
   Al20       1.0     0.889771     0.532144     0.075036    Uiso  ? Al
   Al21       1.0     0.445580     0.430807     0.814753    Uiso  ? Al
   Al22       1.0     0.562781     0.532968     0.568453    Uiso  ? Al
   Al23       1.0     0.112773     0.754851     0.377858    Uiso  ? Al
   Al24       1.0     0.448903     0.757895     0.319173    Uiso  ? Al
   Al25       1.0     0.552134     0.868316     0.074473    Uiso  ? Al
   Al26       1.0     0.119332     0.758134     0.887406    Uiso  ? Al
   Al27       1.0     0.779140     0.760274     0.313906    Uiso  ? Al
   Al28       1.0     0.892157     0.873267     0.080923    Uiso  ? Al
   Al29       1.0     0.447206     0.755427     0.822021    Uiso  ? Al
   Al30       1.0     0.560193     0.868163     0.565161    Uiso  ? Al
   Hf1        1.0     0.554191     0.205061     0.075438    Uiso  ? Hf
   Hf2        1.0     0.779761     0.759078     0.828143    Uiso  ? Hf
   Hf3        1.0     0.222062     0.874982     0.595867    Uiso  ? Hf
   Mg1        1.0     0.113539     0.419774     0.824882    Uiso  ? Mg
   Mg2        1.0     0.226463     0.878165     0.086887    Uiso  ? Mg
   Mg3        1.0     0.874757     0.879996     0.565364    Uiso  ? Mg
   N1         1.0     0.222313     0.204441     0.378000    Uiso  ? N
   N2         1.0     0.100731     0.111800     0.132869    Uiso  ? N
   N3         1.0     0.886495     0.207903     0.879362    Uiso  ? N
   N4         1.0     0.769353     0.112250     0.626639    Uiso  ? N
   N5         1.0     0.556160     0.204251     0.370066    Uiso  ? N
   N6         1.0     0.435812     0.084984     0.135060    Uiso  ? N
   N7         1.0     0.230092     0.188807     0.883908    Uiso  ? N
   N8         1.0     0.095570     0.121666     0.630895    Uiso  ? N
   N9         1.0     0.887974     0.207623     0.379264    Uiso  ? N
   N10        1.0     0.791679     0.092418     0.131109    Uiso  ? N
   N11        1.0     0.553696     0.204641     0.868147    Uiso  ? N
   N12        1.0     0.444119     0.091833     0.623036    Uiso  ? N
   N13        1.0     0.223133     0.536208     0.342253    Uiso  ? N
   N14        1.0     0.111154     0.423155     0.126724    Uiso  ? N
   N15        1.0     0.881293     0.527147     0.888505    Uiso  ? N
   N16        1.0     0.777851     0.429911     0.627312    Uiso  ? N
   N17        1.0     0.557241     0.538186     0.379546    Uiso  ? N
   N18        1.0     0.444211     0.440568     0.130700    Uiso  ? N
   N19        1.0     0.228744     0.544136     0.845696    Uiso  ? N
   N20        1.0     0.107561     0.427055     0.614243    Uiso  ? N
   N21        1.0     0.886598     0.539292     0.371194    Uiso  ? N
   N22        1.0     0.775873     0.425933     0.129999    Uiso  ? N
   N23        1.0     0.557208     0.536127     0.877854    Uiso  ? N
   N24        1.0     0.449514     0.424778     0.621758    Uiso  ? N
   N25        1.0     0.226188     0.876144     0.373304    Uiso  ? N
   N26        1.0     0.111119     0.755009     0.080336    Uiso  ? N
   N27        1.0     0.889260     0.889415     0.880594    Uiso  ? N
   N28        1.0     0.772344     0.751139     0.624168    Uiso  ? N
   N29        1.0     0.558401     0.869996     0.376186    Uiso  ? N
   N30        1.0     0.461894     0.750198     0.132225    Uiso  ? N
   N31        1.0     0.221148     0.874382     0.838040    Uiso  ? N
   N32        1.0     0.113617     0.745134     0.573695    Uiso  ? N
   N33        1.0     0.887193     0.872195     0.355647    Uiso  ? N
   N34        1.0     0.777168     0.761437     0.118558    Uiso  ? N
   N35        1.0     0.539243     0.879518     0.883140    Uiso  ? N
   N36        1.0     0.467726     0.747060     0.630718    Uiso  ? N
