
#======================================================================
# CRYSTAL DATA
#----------------------------------------------------------------------
data_VESTA_phase_1

_chemical_name_common                  'Al   Hf   Mg   N                      '
_cell_length_a                         9.632956
_cell_length_b                         9.644594
_cell_length_c                         10.233976
_cell_angle_alpha                      90.274933
_cell_angle_beta                       90.107300
_cell_angle_gamma                      59.983917
_cell_volume                           823.271481
_space_group_name_H-M_alt              'P 1'
_space_group_IT_number                 1

loop_
_space_group_symop_operation_xyz
   'x, y, z'

loop_
   _atom_site_label
   _atom_site_occupancy
   _atom_site_fract_x
   _atom_site_fract_y
   _atom_site_fract_z
   _atom_site_adp_type
   _atom_site_U_iso_or_equiv
   _atom_site_type_symbol
   Al1        1.0     0.107829     0.100529     0.329346    Uiso  ? Al
   Al2        1.0     0.215082     0.203280     0.079191    Uiso  ? Al
   Al3        1.0     0.776818     0.106962     0.819568    Uiso  ? Al
   Al4        1.0     0.882302     0.216297     0.577048    Uiso  ? Al
   Al5        1.0     0.438615     0.094867     0.333146    Uiso  ? Al
   Al6        1.0     0.107087     0.102902     0.833107    Uiso  ? Al
   Al7        1.0     0.218131     0.215257     0.575098    Uiso  ? Al
   Al8        1.0     0.783116     0.095610     0.333507    Uiso  ? Al
   Al9        1.0     0.894855     0.206345     0.079115    Uiso  ? Al
   Al10       1.0     0.430567     0.105786     0.821612    Uiso  ? Al
   Al11       1.0     0.556876     0.203525     0.573404    Uiso  ? Al
   Al12       1.0     0.110568     0.423580     0.329131    Uiso  ? Al
   Al13       1.0     0.218343     0.543265     0.142426    Uiso  ? Al
   Al14       1.0     0.782216     0.421885     0.827269    Uiso  ? Al
   Al15       1.0     0.893312     0.533253     0.580153    Uiso  ? Al
   Al16       1.0     0.440025     0.435439     0.393627    Uiso  ? Al
   Al17       1.0     0.552856     0.544113     0.144327    Uiso  ? Al
   Al18       1.0     0.225567     0.535500     0.644579    Uiso  ? Al
   Al19       1.0     0.782342     0.423691     0.327952    Uiso  ? Al
   Al20       1.0     0.890747     0.529527     0.080513    Uiso  ? Al
   Al21       1.0     0.436963     0.443266     0.889470    Uiso  ? Al
   Al22       1.0     0.557615     0.533508     0.643640    Uiso  ? Al
   Al23       1.0     0.115016     0.753082     0.392190    Uiso  ? Al
   Al24       1.0     0.450602     0.755237     0.393784    Uiso  ? Al
   Al25       1.0     0.557436     0.860447     0.146444    Uiso  ? Al
   Al26       1.0     0.113862     0.763715     0.897224    Uiso  ? Al
   Al27       1.0     0.779759     0.757592     0.372052    Uiso  ? Al
   Al28       1.0     0.898918     0.861407     0.144142    Uiso  ? Al
   Al29       1.0     0.440787     0.761143     0.897248    Uiso  ? Al
   Al30       1.0     0.555945     0.867884     0.642504    Uiso  ? Al
   Hf1        1.0     0.558423     0.198381     0.086783    Uiso  ? Hf
   Hf2        1.0     0.777019     0.764505     0.866254    Uiso  ? Hf
   Hf3        1.0     0.223330     0.870177     0.624406    Uiso  ? Hf
   Mg1        1.0     0.113055     0.421281     0.832845    Uiso  ? Mg
   Mg2        1.0     0.225374     0.866785     0.141907    Uiso  ? Mg
   Mg3        1.0     0.889063     0.873519     0.630019    Uiso  ? Mg
   N1         1.0     0.222074     0.205108     0.388709    Uiso  ? N
   N2         1.0     0.101475     0.110234     0.144526    Uiso  ? N
   N3         1.0     0.886949     0.207503     0.890689    Uiso  ? N
   N4         1.0     0.765918     0.119481     0.633772    Uiso  ? N
   N5         1.0     0.558166     0.199898     0.376227    Uiso  ? N
   N6         1.0     0.431200     0.089416     0.143986    Uiso  ? N
   N7         1.0     0.228585     0.191186     0.895385    Uiso  ? N
   N8         1.0     0.098012     0.119867     0.639814    Uiso  ? N
   N9         1.0     0.888372     0.207423     0.390648    Uiso  ? N
   N10        1.0     0.795255     0.090892     0.143709    Uiso  ? N
   N11        1.0     0.554772     0.202983     0.880671    Uiso  ? N
   N12        1.0     0.440457     0.100726     0.630030    Uiso  ? N
   N13        1.0     0.227097     0.537882     0.330802    Uiso  ? N
   N14        1.0     0.108784     0.423340     0.137772    Uiso  ? N
   N15        1.0     0.884962     0.522717     0.896675    Uiso  ? N
   N16        1.0     0.783506     0.426992     0.637243    Uiso  ? N
   N17        1.0     0.550812     0.539745     0.334216    Uiso  ? N
   N18        1.0     0.435273     0.446564     0.082101    Uiso  ? N
   N19        1.0     0.228728     0.552010     0.830589    Uiso  ? N
   N20        1.0     0.111113     0.427655     0.624664    Uiso  ? N
   N21        1.0     0.890038     0.534486     0.387142    Uiso  ? N
   N22        1.0     0.781268     0.423362     0.140035    Uiso  ? N
   N23        1.0     0.551839     0.541756     0.832965    Uiso  ? N
   N24        1.0     0.442918     0.432194     0.581148    Uiso  ? N
   N25        1.0     0.222946     0.874356     0.366415    Uiso  ? N
   N26        1.0     0.106662     0.752095     0.082581    Uiso  ? N
   N27        1.0     0.899369     0.886193     0.844170    Uiso  ? N
   N28        1.0     0.774854     0.749442     0.627874    Uiso  ? N
   N29        1.0     0.559710     0.863760     0.339010    Uiso  ? N
   N30        1.0     0.459515     0.751973     0.081104    Uiso  ? N
   N31        1.0     0.223344     0.871313     0.837079    Uiso  ? N
   N32        1.0     0.117558     0.741255     0.574215    Uiso  ? N
   N33        1.0     0.893851     0.864206     0.339873    Uiso  ? N
   N34        1.0     0.775371     0.765670     0.095203    Uiso  ? N
   N35        1.0     0.532386     0.880716     0.832464    Uiso  ? N
   N36        1.0     0.466212     0.746963     0.579513    Uiso  ? N
