
#======================================================================
# CRYSTAL DATA
#----------------------------------------------------------------------
data_VESTA_phase_1

_chemical_name_common                  'Al   Hf   Mg   N                      '
_cell_length_a                         9.630883
_cell_length_b                         9.661030
_cell_length_c                         10.142234
_cell_angle_alpha                      90.152832
_cell_angle_beta                       89.909279
_cell_angle_gamma                      60.115154
_cell_volume                           818.186990
_space_group_name_H-M_alt              'P 1'
_space_group_IT_number                 1

loop_
_space_group_symop_operation_xyz
   'x, y, z'

loop_
   _atom_site_label
   _atom_site_occupancy
   _atom_site_fract_x
   _atom_site_fract_y
   _atom_site_fract_z
   _atom_site_adp_type
   _atom_site_U_iso_or_equiv
   _atom_site_type_symbol
   Al1        1.0     0.109227     0.097880     0.324578    Uiso  ? Al
   Al2        1.0     0.215360     0.205044     0.076523    Uiso  ? Al
   Al3        1.0     0.776453     0.102694     0.821827    Uiso  ? Al
   Al4        1.0     0.882526     0.214681     0.574999    Uiso  ? Al
   Al5        1.0     0.440927     0.089406     0.330859    Uiso  ? Al
   Al6        1.0     0.106877     0.102088     0.828230    Uiso  ? Al
   Al7        1.0     0.218365     0.214898     0.573839    Uiso  ? Al
   Al8        1.0     0.787833     0.089369     0.327601    Uiso  ? Al
   Al9        1.0     0.893972     0.207995     0.075768    Uiso  ? Al
   Al10       1.0     0.436862     0.096414     0.823942    Uiso  ? Al
   Al11       1.0     0.557769     0.200882     0.573273    Uiso  ? Al
   Al12       1.0     0.110905     0.423254     0.327454    Uiso  ? Al
   Al13       1.0     0.217534     0.546235     0.141839    Uiso  ? Al
   Al14       1.0     0.781969     0.421270     0.824954    Uiso  ? Al
   Al15       1.0     0.893266     0.535772     0.569070    Uiso  ? Al
   Al16       1.0     0.440749     0.434052     0.391811    Uiso  ? Al
   Al17       1.0     0.557202     0.541008     0.130436    Uiso  ? Al
   Al18       1.0     0.225392     0.534820     0.641832    Uiso  ? Al
   Al19       1.0     0.781335     0.424285     0.328198    Uiso  ? Al
   Al20       1.0     0.890729     0.532233     0.080824    Uiso  ? Al
   Al21       1.0     0.438534     0.439354     0.887948    Uiso  ? Al
   Al22       1.0     0.561745     0.530012     0.622569    Uiso  ? Al
   Al23       1.0     0.113149     0.753391     0.387131    Uiso  ? Al
   Al24       1.0     0.445144     0.763359     0.326682    Uiso  ? Al
   Al25       1.0     0.551192     0.868579     0.079199    Uiso  ? Al
   Al26       1.0     0.118209     0.756430     0.890282    Uiso  ? Al
   Al27       1.0     0.779288     0.760433     0.320000    Uiso  ? Al
   Al28       1.0     0.892664     0.871240     0.082842    Uiso  ? Al
   Al29       1.0     0.444632     0.759016     0.826666    Uiso  ? Al
   Al30       1.0     0.560811     0.868909     0.570374    Uiso  ? Al
   Hf1        1.0     0.555370     0.202322     0.093052    Uiso  ? Hf
   Hf2        1.0     0.778014     0.758327     0.832900    Uiso  ? Hf
   Hf3        1.0     0.221009     0.875691     0.599854    Uiso  ? Hf
   Mg1        1.0     0.113522     0.418779     0.831402    Uiso  ? Mg
   Mg2        1.0     0.223871     0.878121     0.086143    Uiso  ? Mg
   Mg3        1.0     0.876972     0.878446     0.573383    Uiso  ? Mg
   N1         1.0     0.222778     0.204446     0.385407    Uiso  ? N
   N2         1.0     0.101382     0.110516     0.139449    Uiso  ? N
   N3         1.0     0.887331     0.206815     0.886404    Uiso  ? N
   N4         1.0     0.768388     0.113288     0.635302    Uiso  ? N
   N5         1.0     0.558269     0.200158     0.369431    Uiso  ? N
   N6         1.0     0.433228     0.083982     0.141837    Uiso  ? N
   N7         1.0     0.229648     0.189213     0.890998    Uiso  ? N
   N8         1.0     0.096381     0.121614     0.637927    Uiso  ? N
   N9         1.0     0.889418     0.205634     0.386732    Uiso  ? N
   N10        1.0     0.796270     0.089015     0.137600    Uiso  ? N
   N11        1.0     0.553978     0.202035     0.883139    Uiso  ? N
   N12        1.0     0.444868     0.092097     0.631345    Uiso  ? N
   N13        1.0     0.227070     0.538427     0.330485    Uiso  ? N
   N14        1.0     0.110882     0.423229     0.133870    Uiso  ? N
   N15        1.0     0.882472     0.527395     0.895649    Uiso  ? N
   N16        1.0     0.784645     0.427414     0.631865    Uiso  ? N
   N17        1.0     0.556088     0.538039     0.352526    Uiso  ? N
   N18        1.0     0.433953     0.447999     0.083081    Uiso  ? N
   N19        1.0     0.230348     0.547521     0.828135    Uiso  ? N
   N20        1.0     0.109538     0.428327     0.620094    Uiso  ? N
   N21        1.0     0.888320     0.539709     0.378234    Uiso  ? N
   N22        1.0     0.781107     0.422911     0.137343    Uiso  ? N
   N23        1.0     0.557970     0.535446     0.844221    Uiso  ? N
   N24        1.0     0.443355     0.426889     0.581506    Uiso  ? N
   N25        1.0     0.223985     0.877647     0.381059    Uiso  ? N
   N26        1.0     0.111351     0.749860     0.079176    Uiso  ? N
   N27        1.0     0.887888     0.888680     0.884411    Uiso  ? N
   N28        1.0     0.772182     0.751202     0.630295    Uiso  ? N
   N29        1.0     0.558716     0.870698     0.383041    Uiso  ? N
   N30        1.0     0.455632     0.758189     0.138633    Uiso  ? N
   N31        1.0     0.219379     0.874726     0.844680    Uiso  ? N
   N32        1.0     0.117086     0.740265     0.577045    Uiso  ? N
   N33        1.0     0.888525     0.870705     0.364000    Uiso  ? N
   N34        1.0     0.776005     0.761972     0.125456    Uiso  ? N
   N35        1.0     0.538336     0.880090     0.889494    Uiso  ? N
   N36        1.0     0.464517     0.753315     0.633475    Uiso  ? N
