
#======================================================================
# CRYSTAL DATA
#----------------------------------------------------------------------
data_VESTA_phase_1

_chemical_name_common                  'Al   Hf   Mg   N                      '
_cell_length_a                         9.633703
_cell_length_b                         9.647642
_cell_length_c                         10.235560
_cell_angle_alpha                      90.292641
_cell_angle_beta                       90.122490
_cell_angle_gamma                      59.994122
_cell_volume                           823.806594
_space_group_name_H-M_alt              'P 1'
_space_group_IT_number                 1

loop_
_space_group_symop_operation_xyz
   'x, y, z'

loop_
   _atom_site_label
   _atom_site_occupancy
   _atom_site_fract_x
   _atom_site_fract_y
   _atom_site_fract_z
   _atom_site_adp_type
   _atom_site_U_iso_or_equiv
   _atom_site_type_symbol
   Al1        1.0     0.107950     0.100359     0.329524    Uiso  ? Al
   Al2        1.0     0.214846     0.203452     0.079096    Uiso  ? Al
   Al3        1.0     0.776805     0.106926     0.819816    Uiso  ? Al
   Al4        1.0     0.882372     0.216388     0.577256    Uiso  ? Al
   Al5        1.0     0.438786     0.094712     0.333376    Uiso  ? Al
   Al6        1.0     0.107049     0.102903     0.832992    Uiso  ? Al
   Al7        1.0     0.217963     0.215365     0.575220    Uiso  ? Al
   Al8        1.0     0.783215     0.095576     0.333609    Uiso  ? Al
   Al9        1.0     0.894914     0.206455     0.078950    Uiso  ? Al
   Al10       1.0     0.430274     0.106245     0.822102    Uiso  ? Al
   Al11       1.0     0.556872     0.203590     0.573458    Uiso  ? Al
   Al12       1.0     0.111107     0.423168     0.329618    Uiso  ? Al
   Al13       1.0     0.218487     0.543033     0.142630    Uiso  ? Al
   Al14       1.0     0.782399     0.422271     0.827398    Uiso  ? Al
   Al15       1.0     0.891993     0.535989     0.579128    Uiso  ? Al
   Al16       1.0     0.440045     0.435540     0.393714    Uiso  ? Al
   Al17       1.0     0.552967     0.543916     0.144522    Uiso  ? Al
   Al18       1.0     0.225377     0.535517     0.644537    Uiso  ? Al
   Al19       1.0     0.782298     0.423315     0.328313    Uiso  ? Al
   Al20       1.0     0.891305     0.528453     0.081606    Uiso  ? Al
   Al21       1.0     0.436829     0.443519     0.889341    Uiso  ? Al
   Al22       1.0     0.557916     0.533464     0.643678    Uiso  ? Al
   Al23       1.0     0.114930     0.753187     0.392467    Uiso  ? Al
   Al24       1.0     0.451026     0.755399     0.394192    Uiso  ? Al
   Al25       1.0     0.553797     0.862099     0.145827    Uiso  ? Al
   Al26       1.0     0.113861     0.763762     0.897118    Uiso  ? Al
   Al27       1.0     0.782217     0.753707     0.342567    Uiso  ? Al
   Al28       1.0     0.900817     0.863069     0.142957    Uiso  ? Al
   Al29       1.0     0.440477     0.761279     0.897166    Uiso  ? Al
   Al30       1.0     0.556220     0.867751     0.643149    Uiso  ? Al
   Hf1        1.0     0.558133     0.198993     0.086639    Uiso  ? Hf
   Hf2        1.0     0.777680     0.762836     0.859204    Uiso  ? Hf
   Hf3        1.0     0.223362     0.870190     0.624275    Uiso  ? Hf
   Mg1        1.0     0.112368     0.421647     0.832799    Uiso  ? Mg
   Mg2        1.0     0.225507     0.866581     0.142279    Uiso  ? Mg
   Mg3        1.0     0.887723     0.873236     0.627485    Uiso  ? Mg
   N1         1.0     0.222190     0.204973     0.388844    Uiso  ? N
   N2         1.0     0.101582     0.110000     0.144597    Uiso  ? N
   N3         1.0     0.886926     0.207851     0.890512    Uiso  ? N
   N4         1.0     0.766088     0.119050     0.633891    Uiso  ? N
   N5         1.0     0.558143     0.200074     0.376190    Uiso  ? N
   N6         1.0     0.430986     0.089892     0.143583    Uiso  ? N
   N7         1.0     0.227969     0.191786     0.895307    Uiso  ? N
   N8         1.0     0.098123     0.119717     0.639809    Uiso  ? N
   N9         1.0     0.888483     0.207381     0.390835    Uiso  ? N
   N10        1.0     0.794977     0.091420     0.143342    Uiso  ? N
   N11        1.0     0.554434     0.203709     0.880653    Uiso  ? N
   N12        1.0     0.440758     0.100439     0.630282    Uiso  ? N
   N13        1.0     0.227089     0.537998     0.330981    Uiso  ? N
   N14        1.0     0.109413     0.422717     0.138283    Uiso  ? N
   N15        1.0     0.884534     0.523184     0.898974    Uiso  ? N
   N16        1.0     0.783823     0.427241     0.636920    Uiso  ? N
   N17        1.0     0.550802     0.539900     0.334417    Uiso  ? N
   N18        1.0     0.435172     0.446789     0.082121    Uiso  ? N
   N19        1.0     0.228480     0.552064     0.830498    Uiso  ? N
   N20        1.0     0.110559     0.428013     0.624087    Uiso  ? N
   N21        1.0     0.889250     0.536091     0.386521    Uiso  ? N
   N22        1.0     0.781266     0.422719     0.140504    Uiso  ? N
   N23        1.0     0.551907     0.541914     0.832901    Uiso  ? N
   N24        1.0     0.442941     0.432252     0.581224    Uiso  ? N
   N25        1.0     0.223174     0.874238     0.366830    Uiso  ? N
   N26        1.0     0.107787     0.751514     0.082290    Uiso  ? N
   N27        1.0     0.898578     0.887108     0.847163    Uiso  ? N
   N28        1.0     0.776216     0.746511     0.641570    Uiso  ? N
   N29        1.0     0.558182     0.864567     0.338926    Uiso  ? N
   N30        1.0     0.459060     0.751492     0.080799    Uiso  ? N
   N31        1.0     0.223147     0.871377     0.836821    Uiso  ? N
   N32        1.0     0.117220     0.741385     0.574556    Uiso  ? N
   N33        1.0     0.895029     0.865153     0.339779    Uiso  ? N
   N34        1.0     0.777651     0.761318     0.111262    Uiso  ? N
   N35        1.0     0.531223     0.882142     0.834881    Uiso  ? N
   N36        1.0     0.466729     0.747034     0.579895    Uiso  ? N
