
#======================================================================
# CRYSTAL DATA
#----------------------------------------------------------------------
data_VESTA_phase_1

_chemical_name_common                  'Al   Hf   Mg   N                      '
_cell_length_a                         9.606022
_cell_length_b                         9.634364
_cell_length_c                         10.086911
_cell_angle_alpha                      90.056206
_cell_angle_beta                       89.742210
_cell_angle_gamma                      59.968681
_cell_volume                           808.185193
_space_group_name_H-M_alt              'P 1'
_space_group_IT_number                 1

loop_
_space_group_symop_operation_xyz
   'x, y, z'

loop_
   _atom_site_label
   _atom_site_occupancy
   _atom_site_fract_x
   _atom_site_fract_y
   _atom_site_fract_z
   _atom_site_adp_type
   _atom_site_U_iso_or_equiv
   _atom_site_type_symbol
   Al1        1.0     0.109720     0.099725     0.399850    Uiso  ? Al
   Al2        1.0     0.216218     0.207362     0.154368    Uiso  ? Al
   Al3        1.0     0.780224     0.097602     0.849342    Uiso  ? Al
   Al4        1.0     0.884045     0.219206     0.648579    Uiso  ? Al
   Al5        1.0     0.442282     0.093568     0.404875    Uiso  ? Al
   Al6        1.0     0.108758     0.099129     0.907774    Uiso  ? Al
   Al7        1.0     0.219167     0.211553     0.652682    Uiso  ? Al
   Al8        1.0     0.779582     0.096044     0.394835    Uiso  ? Al
   Al9        1.0     0.894473     0.206994     0.154645    Uiso  ? Al
   Al10       1.0     0.433125     0.092892     0.897066    Uiso  ? Al
   Al11       1.0     0.547522     0.210918     0.650196    Uiso  ? Al
   Al12       1.0     0.113166     0.427048     0.401066    Uiso  ? Al
   Al13       1.0     0.217673     0.540945     0.154146    Uiso  ? Al
   Al14       1.0     0.777009     0.424705     0.904295    Uiso  ? Al
   Al15       1.0     0.887837     0.535426     0.647732    Uiso  ? Al
   Al16       1.0     0.442921     0.430685     0.405486    Uiso  ? Al
   Al17       1.0     0.558396     0.542475     0.152527    Uiso  ? Al
   Al18       1.0     0.222226     0.535463     0.654122    Uiso  ? Al
   Al19       1.0     0.776762     0.429013     0.402645    Uiso  ? Al
   Al20       1.0     0.894312     0.532449     0.158527    Uiso  ? Al
   Al21       1.0     0.438551     0.438612     0.897579    Uiso  ? Al
   Al22       1.0     0.560472     0.533701     0.652695    Uiso  ? Al
   Al23       1.0     0.115773     0.754970     0.400567    Uiso  ? Al
   Al24       1.0     0.447521     0.758074     0.400443    Uiso  ? Al
   Al25       1.0     0.554555     0.866277     0.157884    Uiso  ? Al
   Al26       1.0     0.114077     0.759627     0.910113    Uiso  ? Al
   Al27       1.0     0.776885     0.757409     0.406028    Uiso  ? Al
   Al28       1.0     0.897199     0.865248     0.161483    Uiso  ? Al
   Al29       1.0     0.444046     0.757977     0.907276    Uiso  ? Al
   Al30       1.0     0.555982     0.871229     0.647036    Uiso  ? Al
   Hf1        1.0     0.556759     0.204481     0.137845    Uiso  ? Hf
   Hf2        1.0     0.778504     0.761579     0.898976    Uiso  ? Hf
   Hf3        1.0     0.219862     0.874399     0.644742    Uiso  ? Hf
   Mg1        1.0     0.116321     0.422860     0.902809    Uiso  ? Mg
   Mg2        1.0     0.222030     0.873319     0.153034    Uiso  ? Mg
   Mg3        1.0     0.888192     0.868884     0.635781    Uiso  ? Mg
   N1         1.0     0.224970     0.204432     0.345463    Uiso  ? N
   N2         1.0     0.104483     0.109428     0.093754    Uiso  ? N
   N3         1.0     0.890531     0.209734     0.840578    Uiso  ? N
   N4         1.0     0.768484     0.112670     0.609345    Uiso  ? N
   N5         1.0     0.552968     0.206521     0.349349    Uiso  ? N
   N6         1.0     0.436910     0.080985     0.089040    Uiso  ? N
   N7         1.0     0.224999     0.191751     0.837137    Uiso  ? N
   N8         1.0     0.099672     0.116088     0.588861    Uiso  ? N
   N9         1.0     0.889169     0.209061     0.346672    Uiso  ? N
   N10        1.0     0.797386     0.083636     0.116822    Uiso  ? N
   N11        1.0     0.549413     0.207269     0.852246    Uiso  ? N
   N12        1.0     0.443153     0.094494     0.594345    Uiso  ? N
   N13        1.0     0.226333     0.535609     0.344360    Uiso  ? N
   N14        1.0     0.114020     0.425700     0.108738    Uiso  ? N
   N15        1.0     0.882207     0.529813     0.836633    Uiso  ? N
   N16        1.0     0.774927     0.430902     0.590623    Uiso  ? N
   N17        1.0     0.555886     0.537429     0.343727    Uiso  ? N
   N18        1.0     0.437459     0.446621     0.088902    Uiso  ? N
   N19        1.0     0.226654     0.548792     0.840057    Uiso  ? N
   N20        1.0     0.111481     0.428012     0.593354    Uiso  ? N
   N21        1.0     0.889131     0.537320     0.348137    Uiso  ? N
   N22        1.0     0.778869     0.426784     0.095867    Uiso  ? N
   N23        1.0     0.557360     0.538181     0.842749    Uiso  ? N
   N24        1.0     0.443862     0.428192     0.595462    Uiso  ? N
   N25        1.0     0.222623     0.874281     0.366767    Uiso  ? N
   N26        1.0     0.105754     0.751760     0.096961    Uiso  ? N
   N27        1.0     0.900086     0.877480     0.845153    Uiso  ? N
   N28        1.0     0.769848     0.751807     0.594432    Uiso  ? N
   N29        1.0     0.554917     0.872967     0.347098    Uiso  ? N
   N30        1.0     0.461453     0.752414     0.092788    Uiso  ? N
   N31        1.0     0.221799     0.873033     0.855651    Uiso  ? N
   N32        1.0     0.121263     0.742029     0.585808    Uiso  ? N
   N33        1.0     0.889928     0.869229     0.354785    Uiso  ? N
   N34        1.0     0.779133     0.759564     0.107986    Uiso  ? N
   N35        1.0     0.540276     0.877348     0.836923    Uiso  ? N
   N36        1.0     0.460187     0.750076     0.590932    Uiso  ? N
