
#======================================================================
# CRYSTAL DATA
#----------------------------------------------------------------------
data_VESTA_phase_1

_chemical_name_common                  'Al   Hf   Mg   N                      '
_cell_length_a                         9.613930
_cell_length_b                         9.617366
_cell_length_c                         10.294910
_cell_angle_alpha                      89.948517
_cell_angle_beta                       89.876236
_cell_angle_gamma                      59.968521
_cell_volume                           824.083874
_space_group_name_H-M_alt              'P 1'
_space_group_IT_number                 1

loop_
_space_group_symop_operation_xyz
   'x, y, z'

loop_
   _atom_site_label
   _atom_site_occupancy
   _atom_site_fract_x
   _atom_site_fract_y
   _atom_site_fract_z
   _atom_site_adp_type
   _atom_site_U_iso_or_equiv
   _atom_site_type_symbol
   Al1        1.0     0.108352     0.101414     0.333596    Uiso  ? Al
   Al2        1.0     0.219014     0.199047     0.084636    Uiso  ? Al
   Al3        1.0     0.776288     0.105262     0.825412    Uiso  ? Al
   Al4        1.0     0.881388     0.215057     0.580767    Uiso  ? Al
   Al5        1.0     0.438432     0.094576     0.339326    Uiso  ? Al
   Al6        1.0     0.107706     0.103019     0.838211    Uiso  ? Al
   Al7        1.0     0.220692     0.208978     0.582724    Uiso  ? Al
   Al8        1.0     0.783343     0.093848     0.339225    Uiso  ? Al
   Al9        1.0     0.894891     0.207587     0.085924    Uiso  ? Al
   Al10       1.0     0.434762     0.102494     0.826134    Uiso  ? Al
   Al11       1.0     0.557046     0.203550     0.578531    Uiso  ? Al
   Al12       1.0     0.110548     0.433428     0.399345    Uiso  ? Al
   Al13       1.0     0.216346     0.540214     0.150222    Uiso  ? Al
   Al14       1.0     0.778623     0.421188     0.835542    Uiso  ? Al
   Al15       1.0     0.890119     0.539017     0.642854    Uiso  ? Al
   Al16       1.0     0.438650     0.436004     0.399057    Uiso  ? Al
   Al17       1.0     0.554771     0.544131     0.149623    Uiso  ? Al
   Al18       1.0     0.223687     0.534251     0.650778    Uiso  ? Al
   Al19       1.0     0.778069     0.424428     0.347472    Uiso  ? Al
   Al20       1.0     0.899007     0.530851     0.158571    Uiso  ? Al
   Al21       1.0     0.436751     0.442497     0.895692    Uiso  ? Al
   Al22       1.0     0.554511     0.533992     0.646371    Uiso  ? Al
   Al23       1.0     0.112801     0.755288     0.399249    Uiso  ? Al
   Al24       1.0     0.448569     0.757369     0.401024    Uiso  ? Al
   Al25       1.0     0.558436     0.858338     0.160035    Uiso  ? Al
   Al26       1.0     0.113087     0.762139     0.902633    Uiso  ? Al
   Al27       1.0     0.778006     0.757540     0.404974    Uiso  ? Al
   Al28       1.0     0.900846     0.859524     0.158490    Uiso  ? Al
   Al29       1.0     0.442061     0.761685     0.901052    Uiso  ? Al
   Al30       1.0     0.560434     0.865780     0.644389    Uiso  ? Al
   Hf1        1.0     0.558419     0.199805     0.093972    Uiso  ? Hf
   Hf2        1.0     0.777654     0.762708     0.900641    Uiso  ? Hf
   Hf3        1.0     0.220485     0.871705     0.630184    Uiso  ? Hf
   Mg1        1.0     0.115530     0.428710     0.897279    Uiso  ? Mg
   Mg2        1.0     0.225999     0.865457     0.146940    Uiso  ? Mg
   Mg3        1.0     0.886240     0.871362     0.638121    Uiso  ? Mg
   N1         1.0     0.223913     0.201067     0.396635    Uiso  ? N
   N2         1.0     0.102257     0.110023     0.150419    Uiso  ? N
   N3         1.0     0.887675     0.206589     0.896694    Uiso  ? N
   N4         1.0     0.765376     0.118890     0.641395    Uiso  ? N
   N5         1.0     0.557970     0.200273     0.382880    Uiso  ? N
   N6         1.0     0.433833     0.087761     0.151053    Uiso  ? N
   N7         1.0     0.234042     0.183566     0.899536    Uiso  ? N
   N8         1.0     0.095076     0.123065     0.648148    Uiso  ? N
   N9         1.0     0.889892     0.203673     0.395950    Uiso  ? N
   N10        1.0     0.795627     0.089582     0.149924    Uiso  ? N
   N11        1.0     0.555768     0.201568     0.888553    Uiso  ? N
   N12        1.0     0.440653     0.101226     0.637365    Uiso  ? N
   N13        1.0     0.224274     0.537208     0.337145    Uiso  ? N
   N14        1.0     0.113329     0.426225     0.103769    Uiso  ? N
   N15        1.0     0.887046     0.533831     0.831287    Uiso  ? N
   N16        1.0     0.775324     0.429542     0.623858    Uiso  ? N
   N17        1.0     0.548540     0.541607     0.339752    Uiso  ? N
   N18        1.0     0.434619     0.448901     0.087778    Uiso  ? N
   N19        1.0     0.228276     0.548611     0.833677    Uiso  ? N
   N20        1.0     0.108966     0.435067     0.589510    Uiso  ? N
   N21        1.0     0.892062     0.538757     0.346807    Uiso  ? N
   N22        1.0     0.779769     0.423935     0.139683    Uiso  ? N
   N23        1.0     0.551558     0.540936     0.836514    Uiso  ? N
   N24        1.0     0.440188     0.432458     0.585981    Uiso  ? N
   N25        1.0     0.221831     0.874500     0.371926    Uiso  ? N
   N26        1.0     0.105441     0.751830     0.087859    Uiso  ? N
   N27        1.0     0.896132     0.880757     0.846320    Uiso  ? N
   N28        1.0     0.770596     0.754761     0.588067    Uiso  ? N
   N29        1.0     0.559334     0.863481     0.346443    Uiso  ? N
   N30        1.0     0.461521     0.753337     0.084455    Uiso  ? N
   N31        1.0     0.223301     0.869858     0.842018    Uiso  ? N
   N32        1.0     0.116155     0.741816     0.581140    Uiso  ? N
   N33        1.0     0.892749     0.863791     0.347401    Uiso  ? N
   N34        1.0     0.778535     0.760456     0.105980    Uiso  ? N
   N35        1.0     0.544186     0.873203     0.832352    Uiso  ? N
   N36        1.0     0.462374     0.749557     0.586369    Uiso  ? N
