
#======================================================================
# CRYSTAL DATA
#----------------------------------------------------------------------
data_VESTA_phase_1

_chemical_name_common                  'Al   Hf   Mg   N                      '
_cell_length_a                         9.582996
_cell_length_b                         9.602866
_cell_length_c                         10.118719
_cell_angle_alpha                      89.934433
_cell_angle_beta                       89.960968
_cell_angle_gamma                      59.956421
_cell_volume                           806.059691
_space_group_name_H-M_alt              'P 1'
_space_group_IT_number                 1

loop_
_space_group_symop_operation_xyz
   'x, y, z'

loop_
   _atom_site_label
   _atom_site_occupancy
   _atom_site_fract_x
   _atom_site_fract_y
   _atom_site_fract_z
   _atom_site_adp_type
   _atom_site_U_iso_or_equiv
   _atom_site_type_symbol
   Al1        1.0     0.108353     0.098450     0.304899    Uiso  ? Al
   Al2        1.0     0.216153     0.205783     0.059091    Uiso  ? Al
   Al3        1.0     0.782002     0.099329     0.803488    Uiso  ? Al
   Al4        1.0     0.882099     0.214203     0.558356    Uiso  ? Al
   Al5        1.0     0.441277     0.091525     0.314456    Uiso  ? Al
   Al6        1.0     0.109099     0.101386     0.811984    Uiso  ? Al
   Al7        1.0     0.218487     0.213254     0.555647    Uiso  ? Al
   Al8        1.0     0.783454     0.091901     0.312781    Uiso  ? Al
   Al9        1.0     0.892864     0.208735     0.059118    Uiso  ? Al
   Al10       1.0     0.436468     0.095522     0.804123    Uiso  ? Al
   Al11       1.0     0.555930     0.206515     0.557812    Uiso  ? Al
   Al12       1.0     0.112135     0.427420     0.309198    Uiso  ? Al
   Al13       1.0     0.217925     0.544117     0.059077    Uiso  ? Al
   Al14       1.0     0.777415     0.424061     0.808219    Uiso  ? Al
   Al15       1.0     0.890194     0.535284     0.552563    Uiso  ? Al
   Al16       1.0     0.441698     0.433610     0.314252    Uiso  ? Al
   Al17       1.0     0.557387     0.542437     0.058758    Uiso  ? Al
   Al18       1.0     0.220704     0.533740     0.556210    Uiso  ? Al
   Al19       1.0     0.776664     0.427240     0.308093    Uiso  ? Al
   Al20       1.0     0.890805     0.532678     0.064850    Uiso  ? Al
   Al21       1.0     0.441337     0.432734     0.804231    Uiso  ? Al
   Al22       1.0     0.561524     0.533079     0.558583    Uiso  ? Al
   Al23       1.0     0.109360     0.759027     0.303210    Uiso  ? Al
   Al24       1.0     0.447427     0.757850     0.305151    Uiso  ? Al
   Al25       1.0     0.551319     0.868522     0.063387    Uiso  ? Al
   Al26       1.0     0.118112     0.756521     0.812164    Uiso  ? Al
   Al27       1.0     0.778485     0.761365     0.303432    Uiso  ? Al
   Al28       1.0     0.897247     0.870250     0.065943    Uiso  ? Al
   Al29       1.0     0.445945     0.757062     0.810707    Uiso  ? Al
   Al30       1.0     0.559895     0.868921     0.553961    Uiso  ? Al
   Hf1        1.0     0.553608     0.206442     0.065163    Uiso  ? Hf
   Hf2        1.0     0.780282     0.759172     0.816841    Uiso  ? Hf
   Hf3        1.0     0.220549     0.873336     0.572600    Uiso  ? Hf
   Mg1        1.0     0.116828     0.423146     0.809082    Uiso  ? Mg
   Mg2        1.0     0.222167     0.873879     0.055335    Uiso  ? Mg
   Mg3        1.0     0.884999     0.872728     0.553711    Uiso  ? Mg
   N1         1.0     0.221524     0.204669     0.366994    Uiso  ? N
   N2         1.0     0.102826     0.108696     0.120132    Uiso  ? N
   N3         1.0     0.887672     0.207300     0.869096    Uiso  ? N
   N4         1.0     0.771507     0.109092     0.617472    Uiso  ? N
   N5         1.0     0.554937     0.205557     0.361203    Uiso  ? N
   N6         1.0     0.436160     0.085677     0.124823    Uiso  ? N
   N7         1.0     0.229843     0.192122     0.873059    Uiso  ? N
   N8         1.0     0.098701     0.117678     0.620815    Uiso  ? N
   N9         1.0     0.888330     0.207026     0.369069    Uiso  ? N
   N10        1.0     0.792170     0.090840     0.121359    Uiso  ? N
   N11        1.0     0.554835     0.204235     0.858059    Uiso  ? N
   N12        1.0     0.444181     0.092168     0.612921    Uiso  ? N
   N13        1.0     0.222009     0.539593     0.366593    Uiso  ? N
   N14        1.0     0.114348     0.426276     0.117994    Uiso  ? N
   N15        1.0     0.883368     0.526905     0.878123    Uiso  ? N
   N16        1.0     0.777880     0.429330     0.617374    Uiso  ? N
   N17        1.0     0.556254     0.538697     0.369786    Uiso  ? N
   N18        1.0     0.438089     0.443763     0.123975    Uiso  ? N
   N19        1.0     0.231714     0.543699     0.873214    Uiso  ? N
   N20        1.0     0.108948     0.428704     0.603588    Uiso  ? N
   N21        1.0     0.886946     0.539410     0.360586    Uiso  ? N
   N22        1.0     0.775525     0.426271     0.119525    Uiso  ? N
   N23        1.0     0.556667     0.536138     0.867038    Uiso  ? N
   N24        1.0     0.443691     0.427712     0.613664    Uiso  ? N
   N25        1.0     0.221931     0.872424     0.361665    Uiso  ? N
   N26        1.0     0.108470     0.753812     0.118738    Uiso  ? N
   N27        1.0     0.898421     0.883776     0.873255    Uiso  ? N
   N28        1.0     0.772369     0.751215     0.613796    Uiso  ? N
   N29        1.0     0.556474     0.870130     0.365480    Uiso  ? N
   N30        1.0     0.457753     0.752310     0.119928    Uiso  ? N
   N31        1.0     0.222694     0.875320     0.839377    Uiso  ? N
   N32        1.0     0.114766     0.742933     0.624492    Uiso  ? N
   N33        1.0     0.888132     0.871360     0.351871    Uiso  ? N
   N34        1.0     0.776855     0.762681     0.108163    Uiso  ? N
   N35        1.0     0.539948     0.879861     0.872649    Uiso  ? N
   N36        1.0     0.464092     0.749806     0.620020    Uiso  ? N
