
#======================================================================
# CRYSTAL DATA
#----------------------------------------------------------------------
data_VESTA_phase_1

_chemical_name_common                  'Al   Hf   Mg   N                      '
_cell_length_a                         9.608569
_cell_length_b                         9.618092
_cell_length_c                         10.286888
_cell_angle_alpha                      89.961052
_cell_angle_beta                       89.898010
_cell_angle_gamma                      59.980476
_cell_volume                           823.144540
_space_group_name_H-M_alt              'P 1'
_space_group_IT_number                 1

loop_
_space_group_symop_operation_xyz
   'x, y, z'

loop_
   _atom_site_label
   _atom_site_occupancy
   _atom_site_fract_x
   _atom_site_fract_y
   _atom_site_fract_z
   _atom_site_adp_type
   _atom_site_U_iso_or_equiv
   _atom_site_type_symbol
   Al1        1.0     0.108086     0.101575     0.333317    Uiso  ? Al
   Al2        1.0     0.218895     0.199312     0.084659    Uiso  ? Al
   Al3        1.0     0.776187     0.105105     0.825228    Uiso  ? Al
   Al4        1.0     0.882413     0.213337     0.581037    Uiso  ? Al
   Al5        1.0     0.438402     0.094571     0.339283    Uiso  ? Al
   Al6        1.0     0.107955     0.102787     0.837910    Uiso  ? Al
   Al7        1.0     0.220595     0.209236     0.582678    Uiso  ? Al
   Al8        1.0     0.783485     0.093917     0.338846    Uiso  ? Al
   Al9        1.0     0.895528     0.206139     0.086540    Uiso  ? Al
   Al10       1.0     0.434800     0.102567     0.826147    Uiso  ? Al
   Al11       1.0     0.556851     0.203816     0.578431    Uiso  ? Al
   Al12       1.0     0.110569     0.433403     0.398939    Uiso  ? Al
   Al13       1.0     0.216210     0.540245     0.149978    Uiso  ? Al
   Al14       1.0     0.776639     0.424763     0.864134    Uiso  ? Al
   Al15       1.0     0.888706     0.537843     0.642047    Uiso  ? Al
   Al16       1.0     0.438873     0.436000     0.398773    Uiso  ? Al
   Al17       1.0     0.557203     0.543068     0.149734    Uiso  ? Al
   Al18       1.0     0.223734     0.534275     0.650490    Uiso  ? Al
   Al19       1.0     0.775545     0.429473     0.377308    Uiso  ? Al
   Al20       1.0     0.897465     0.529098     0.158542    Uiso  ? Al
   Al21       1.0     0.436690     0.442223     0.895571    Uiso  ? Al
   Al22       1.0     0.557695     0.532569     0.646047    Uiso  ? Al
   Al23       1.0     0.112782     0.755309     0.399137    Uiso  ? Al
   Al24       1.0     0.448469     0.757474     0.400792    Uiso  ? Al
   Al25       1.0     0.558419     0.858348     0.159765    Uiso  ? Al
   Al26       1.0     0.113101     0.762214     0.902678    Uiso  ? Al
   Al27       1.0     0.778066     0.757842     0.404750    Uiso  ? Al
   Al28       1.0     0.900718     0.859289     0.158369    Uiso  ? Al
   Al29       1.0     0.441835     0.762218     0.901171    Uiso  ? Al
   Al30       1.0     0.560484     0.865861     0.644154    Uiso  ? Al
   Hf1        1.0     0.558249     0.200097     0.094136    Uiso  ? Hf
   Hf2        1.0     0.778020     0.762177     0.900350    Uiso  ? Hf
   Hf3        1.0     0.220610     0.871650     0.629782    Uiso  ? Hf
   Mg1        1.0     0.115335     0.428613     0.896864    Uiso  ? Mg
   Mg2        1.0     0.226146     0.865281     0.147011    Uiso  ? Mg
   Mg3        1.0     0.886269     0.871343     0.637964    Uiso  ? Mg
   N1         1.0     0.223839     0.201135     0.396571    Uiso  ? N
   N2         1.0     0.102626     0.109805     0.150340    Uiso  ? N
   N3         1.0     0.889274     0.203338     0.896053    Uiso  ? N
   N4         1.0     0.765203     0.119218     0.641590    Uiso  ? N
   N5         1.0     0.557971     0.200330     0.382792    Uiso  ? N
   N6         1.0     0.433798     0.087819     0.150997    Uiso  ? N
   N7         1.0     0.233982     0.183635     0.899404    Uiso  ? N
   N8         1.0     0.094985     0.123317     0.648349    Uiso  ? N
   N9         1.0     0.891100     0.201504     0.394985    Uiso  ? N
   N10        1.0     0.795558     0.089318     0.149789    Uiso  ? N
   N11        1.0     0.555762     0.201698     0.888474    Uiso  ? N
   N12        1.0     0.440666     0.101254     0.637364    Uiso  ? N
   N13        1.0     0.224348     0.537269     0.337086    Uiso  ? N
   N14        1.0     0.112827     0.426500     0.103672    Uiso  ? N
   N15        1.0     0.885483     0.532094     0.829085    Uiso  ? N
   N16        1.0     0.773247     0.433969     0.598665    Uiso  ? N
   N17        1.0     0.550380     0.540778     0.338751    Uiso  ? N
   N18        1.0     0.434594     0.449171     0.087678    Uiso  ? N
   N19        1.0     0.228178     0.548711     0.833607    Uiso  ? N
   N20        1.0     0.108632     0.435267     0.589463    Uiso  ? N
   N21        1.0     0.891421     0.538368     0.345573    Uiso  ? N
   N22        1.0     0.778258     0.427327     0.119444    Uiso  ? N
   N23        1.0     0.553672     0.539467     0.835369    Uiso  ? N
   N24        1.0     0.440520     0.432672     0.586065    Uiso  ? N
   N25        1.0     0.222012     0.874329     0.371928    Uiso  ? N
   N26        1.0     0.105376     0.751926     0.087801    Uiso  ? N
   N27        1.0     0.895993     0.880444     0.846172    Uiso  ? N
   N28        1.0     0.770756     0.754822     0.588158    Uiso  ? N
   N29        1.0     0.559303     0.863550     0.346432    Uiso  ? N
   N30        1.0     0.461201     0.753390     0.084478    Uiso  ? N
   N31        1.0     0.223612     0.869525     0.841800    Uiso  ? N
   N32        1.0     0.116169     0.741832     0.581110    Uiso  ? N
   N33        1.0     0.892751     0.863695     0.347345    Uiso  ? N
   N34        1.0     0.778421     0.760638     0.105618    Uiso  ? N
   N35        1.0     0.544453     0.873245     0.832496    Uiso  ? N
   N36        1.0     0.462351     0.749548     0.586575    Uiso  ? N
