
#======================================================================
# CRYSTAL DATA
#----------------------------------------------------------------------
data_VESTA_phase_1

_chemical_name_common                  'Al   Hf   Mg   N '
_cell_length_a                         9.612966
_cell_length_b                         9.634108
_cell_length_c                         10.163066
_cell_angle_alpha                      89.889816
_cell_angle_beta                       89.888359
_cell_angle_gamma                      60.011330
_cell_volume                           815.216081
_space_group_name_H-M_alt              'P 1'
_space_group_IT_number                 1

loop_
_space_group_symop_operation_xyz
   'x, y, z'

loop_
   _atom_site_label
   _atom_site_occupancy
   _atom_site_fract_x
   _atom_site_fract_y
   _atom_site_fract_z
   _atom_site_adp_type
   _atom_site_U_iso_or_equiv
   _atom_site_type_symbol
   Al1        1.0     0.109034     0.097654     0.328964    Uiso  ? Al
   Al2        1.0     0.215944     0.204782     0.081148    Uiso  ? Al
   Al3        1.0     0.780579     0.100308     0.822717    Uiso  ? Al
   Al4        1.0     0.881514     0.215749     0.578854    Uiso  ? Al
   Al5        1.0     0.441836     0.091086     0.335334    Uiso  ? Al
   Al6        1.0     0.106699     0.102174     0.832319    Uiso  ? Al
   Al7        1.0     0.218336     0.214405     0.576794    Uiso  ? Al
   Al8        1.0     0.784650     0.091856     0.331400    Uiso  ? Al
   Al9        1.0     0.892693     0.208982     0.080209    Uiso  ? Al
   Al10       1.0     0.435671     0.095245     0.825034    Uiso  ? Al
   Al11       1.0     0.555704     0.207038     0.577127    Uiso  ? Al
   Al12       1.0     0.108491     0.423462     0.333355    Uiso  ? Al
   Al13       1.0     0.215584     0.546197     0.148364    Uiso  ? Al
   Al14       1.0     0.777129     0.424266     0.828563    Uiso  ? Al
   Al15       1.0     0.890580     0.535789     0.573674    Uiso  ? Al
   Al16       1.0     0.447891     0.429779     0.337337    Uiso  ? Al
   Al17       1.0     0.559171     0.541893     0.079756    Uiso  ? Al
   Al18       1.0     0.218874     0.538293     0.643928    Uiso  ? Al
   Al19       1.0     0.776949     0.427065     0.328545    Uiso  ? Al
   Al20       1.0     0.890004     0.532451     0.085203    Uiso  ? Al
   Al21       1.0     0.448641     0.429813     0.822574    Uiso  ? Al
   Al22       1.0     0.563195     0.532878     0.578130    Uiso  ? Al
   Al23       1.0     0.112792     0.754485     0.392185    Uiso  ? Al
   Al24       1.0     0.448468     0.758573     0.328843    Uiso  ? Al
   Al25       1.0     0.552379     0.868204     0.084608    Uiso  ? Al
   Al26       1.0     0.120413     0.755026     0.896283    Uiso  ? Al
   Al27       1.0     0.779037     0.760718     0.323882    Uiso  ? Al
   Al28       1.0     0.893107     0.871679     0.088056    Uiso  ? Al
   Al29       1.0     0.446818     0.755804     0.831415    Uiso  ? Al
   Al30       1.0     0.560009     0.868662     0.574751    Uiso  ? Al
   Hf1        1.0     0.553842     0.205520     0.083922    Uiso  ? Hf
   Hf2        1.0     0.778958     0.759200     0.836370    Uiso  ? Hf
   Hf3        1.0     0.222481     0.874969     0.605226    Uiso  ? Hf
   Mg1        1.0     0.112320     0.418775     0.835868    Uiso  ? Mg
   Mg2        1.0     0.226357     0.876862     0.093272    Uiso  ? Mg
   Mg3        1.0     0.874917     0.879923     0.574708    Uiso  ? Mg
   N1         1.0     0.222624     0.203821     0.389112    Uiso  ? N
   N2         1.0     0.101241     0.110229     0.143854    Uiso  ? N
   N3         1.0     0.886515     0.207796     0.890360    Uiso  ? N
   N4         1.0     0.770191     0.111707     0.637790    Uiso  ? N
   N5         1.0     0.556467     0.203772     0.381795    Uiso  ? N
   N6         1.0     0.436031     0.085464     0.146011    Uiso  ? N
   N7         1.0     0.229975     0.188616     0.895824    Uiso  ? N
   N8         1.0     0.095934     0.121930     0.641943    Uiso  ? N
   N9         1.0     0.887957     0.207451     0.389959    Uiso  ? N
   N10        1.0     0.792004     0.091155     0.141239    Uiso  ? N
   N11        1.0     0.553050     0.205527     0.877981    Uiso  ? N
   N12        1.0     0.444065     0.091990     0.634287    Uiso  ? N
   N13        1.0     0.221028     0.539865     0.339959    Uiso  ? N
   N14        1.0     0.110370     0.422893     0.138788    Uiso  ? N
   N15        1.0     0.880637     0.527942     0.899844    Uiso  ? N
   N16        1.0     0.778118     0.430074     0.638515    Uiso  ? N
   N17        1.0     0.557486     0.538868     0.390349    Uiso  ? N
   N18        1.0     0.445347     0.439762     0.141914    Uiso  ? N
   N19        1.0     0.226479     0.548409     0.833443    Uiso  ? N
   N20        1.0     0.107562     0.428026     0.623505    Uiso  ? N
   N21        1.0     0.885519     0.539727     0.382627    Uiso  ? N
   N22        1.0     0.776067     0.425860     0.140696    Uiso  ? N
   N23        1.0     0.556695     0.536614     0.889106    Uiso  ? N
   N24        1.0     0.451030     0.424542     0.630260    Uiso  ? N
   N25        1.0     0.226383     0.875975     0.384925    Uiso  ? N
   N26        1.0     0.113536     0.749411     0.084278    Uiso  ? N
   N27        1.0     0.888733     0.888918     0.890460    Uiso  ? N
   N28        1.0     0.772204     0.751645     0.634236    Uiso  ? N
   N29        1.0     0.558215     0.870354     0.386985    Uiso  ? N
   N30        1.0     0.461338     0.750705     0.143229    Uiso  ? N
   N31        1.0     0.220582     0.873986     0.847974    Uiso  ? N
   N32        1.0     0.115113     0.743354     0.580855    Uiso  ? N
   N33        1.0     0.887611     0.871992     0.366709    Uiso  ? N
   N34        1.0     0.777345     0.761503     0.130124    Uiso  ? N
   N35        1.0     0.539057     0.879650     0.894300    Uiso  ? N
   N36        1.0     0.468136     0.747271     0.641687    Uiso  ? N
