
#======================================================================
# CRYSTAL DATA
#----------------------------------------------------------------------
data_VESTA_phase_1

_chemical_name_common                  'Al   Hf   Mg   N                      '
_cell_length_a                         9.645779
_cell_length_b                         9.622247
_cell_length_c                         10.292937
_cell_angle_alpha                      89.980698
_cell_angle_beta                       89.954308
_cell_angle_gamma                      59.868484
_cell_volume                           826.240597
_space_group_name_H-M_alt              'P 1'
_space_group_IT_number                 1

loop_
_space_group_symop_operation_xyz
   'x, y, z'

loop_
   _atom_site_label
   _atom_site_occupancy
   _atom_site_fract_x
   _atom_site_fract_y
   _atom_site_fract_z
   _atom_site_adp_type
   _atom_site_U_iso_or_equiv
   _atom_site_type_symbol
   Al1        1.0     0.107446     0.101188     0.335570    Uiso  ? Al
   Al2        1.0     0.217816     0.200702     0.084433    Uiso  ? Al
   Al3        1.0     0.777532     0.104439     0.824454    Uiso  ? Al
   Al4        1.0     0.881353     0.217021     0.582323    Uiso  ? Al
   Al5        1.0     0.439163     0.094204     0.341602    Uiso  ? Al
   Al6        1.0     0.107440     0.103145     0.837815    Uiso  ? Al
   Al7        1.0     0.216629     0.216985     0.581094    Uiso  ? Al
   Al8        1.0     0.783144     0.094623     0.341876    Uiso  ? Al
   Al9        1.0     0.895288     0.205371     0.084314    Uiso  ? Al
   Al10       1.0     0.433744     0.102080     0.825171    Uiso  ? Al
   Al11       1.0     0.557135     0.203067     0.579036    Uiso  ? Al
   Al12       1.0     0.115401     0.422001     0.334331    Uiso  ? Al
   Al13       1.0     0.220439     0.544035     0.147607    Uiso  ? Al
   Al14       1.0     0.778198     0.421098     0.835227    Uiso  ? Al
   Al15       1.0     0.890367     0.538537     0.638862    Uiso  ? Al
   Al16       1.0     0.439664     0.435973     0.399820    Uiso  ? Al
   Al17       1.0     0.551679     0.545060     0.148476    Uiso  ? Al
   Al18       1.0     0.226427     0.535211     0.652391    Uiso  ? Al
   Al19       1.0     0.779486     0.421971     0.332283    Uiso  ? Al
   Al20       1.0     0.889856     0.536874     0.144770    Uiso  ? Al
   Al21       1.0     0.438041     0.441352     0.896742    Uiso  ? Al
   Al22       1.0     0.554730     0.533573     0.650519    Uiso  ? Al
   Al23       1.0     0.113667     0.753623     0.400523    Uiso  ? Al
   Al24       1.0     0.449737     0.755463     0.401309    Uiso  ? Al
   Al25       1.0     0.555836     0.860401     0.161820    Uiso  ? Al
   Al26       1.0     0.113221     0.763224     0.902318    Uiso  ? Al
   Al27       1.0     0.779558     0.754968     0.404152    Uiso  ? Al
   Al28       1.0     0.900910     0.860975     0.160854    Uiso  ? Al
   Al29       1.0     0.442000     0.761188     0.901132    Uiso  ? Al
   Al30       1.0     0.559701     0.865710     0.643568    Uiso  ? Al
   Hf1        1.0     0.559411     0.197466     0.094321    Uiso  ? Hf
   Hf2        1.0     0.773679     0.769545     0.902112    Uiso  ? Hf
   Hf3        1.0     0.221978     0.871256     0.630275    Uiso  ? Hf
   Mg1        1.0     0.118498     0.420869     0.849850    Uiso  ? Mg
   Mg2        1.0     0.225220     0.867312     0.147321    Uiso  ? Mg
   Mg3        1.0     0.887657     0.870299     0.637527    Uiso  ? Mg
   N1         1.0     0.221953     0.205400     0.395659    Uiso  ? N
   N2         1.0     0.101077     0.111708     0.151538    Uiso  ? N
   N3         1.0     0.887988     0.205158     0.896836    Uiso  ? N
   N4         1.0     0.765837     0.118921     0.640149    Uiso  ? N
   N5         1.0     0.558014     0.200120     0.383517    Uiso  ? N
   N6         1.0     0.432278     0.088991     0.152452    Uiso  ? N
   N7         1.0     0.232787     0.185818     0.901510    Uiso  ? N
   N8         1.0     0.096430     0.122042     0.646136    Uiso  ? N
   N9         1.0     0.887927     0.207418     0.397073    Uiso  ? N
   N10        1.0     0.795603     0.090358     0.151939    Uiso  ? N
   N11        1.0     0.556901     0.198903     0.888606    Uiso  ? N
   N12        1.0     0.439980     0.101057     0.635442    Uiso  ? N
   N13        1.0     0.227759     0.538915     0.335645    Uiso  ? N
   N14        1.0     0.117016     0.420613     0.137521    Uiso  ? N
   N15        1.0     0.880560     0.535299     0.860897    Uiso  ? N
   N16        1.0     0.778721     0.426706     0.642400    Uiso  ? N
   N17        1.0     0.549361     0.540518     0.338323    Uiso  ? N
   N18        1.0     0.435959     0.446656     0.087409    Uiso  ? N
   N19        1.0     0.231289     0.551019     0.837257    Uiso  ? N
   N20        1.0     0.111587     0.428917     0.631292    Uiso  ? N
   N21        1.0     0.888701     0.538967     0.344171    Uiso  ? N
   N22        1.0     0.777783     0.421986     0.140171    Uiso  ? N
   N23        1.0     0.550321     0.540866     0.839480    Uiso  ? N
   N24        1.0     0.442035     0.432244     0.586684    Uiso  ? N
   N25        1.0     0.222138     0.874531     0.373055    Uiso  ? N
   N26        1.0     0.103984     0.754105     0.087704    Uiso  ? N
   N27        1.0     0.898412     0.880344     0.844579    Uiso  ? N
   N28        1.0     0.770931     0.753600     0.588659    Uiso  ? N
   N29        1.0     0.558946     0.863587     0.348125    Uiso  ? N
   N30        1.0     0.460755     0.754382     0.085165    Uiso  ? N
   N31        1.0     0.223489     0.871032     0.842493    Uiso  ? N
   N32        1.0     0.117544     0.741267     0.581729    Uiso  ? N
   N33        1.0     0.893298     0.863672     0.349298    Uiso  ? N
   N34        1.0     0.774703     0.767261     0.107472    Uiso  ? N
   N35        1.0     0.541358     0.873822     0.831176    Uiso  ? N
   N36        1.0     0.464269     0.746938     0.586459    Uiso  ? N
