
#======================================================================
# CRYSTAL DATA
#----------------------------------------------------------------------
data_VESTA_phase_1

_chemical_name_common                  'Al   Hf   Mg   N                      '
_cell_length_a                         9.629550
_cell_length_b                         9.658940
_cell_length_c                         10.067644
_cell_angle_alpha                      89.771156
_cell_angle_beta                       89.847214
_cell_angle_gamma                      60.058422
_cell_volume                           811.420049
_space_group_name_H-M_alt              'P 1'
_space_group_IT_number                 1

loop_
_space_group_symop_operation_xyz
   'x, y, z'

loop_
   _atom_site_label
   _atom_site_occupancy
   _atom_site_fract_x
   _atom_site_fract_y
   _atom_site_fract_z
   _atom_site_adp_type
   _atom_site_U_iso_or_equiv
   _atom_site_type_symbol
   Al1        1.0     0.108696     0.098931     0.319268    Uiso  ? Al
   Al2        1.0     0.216328     0.204736     0.070122    Uiso  ? Al
   Al3        1.0     0.780034     0.100755     0.813284    Uiso  ? Al
   Al4        1.0     0.881265     0.215847     0.568885    Uiso  ? Al
   Al5        1.0     0.441497     0.091002     0.325853    Uiso  ? Al
   Al6        1.0     0.106641     0.102633     0.822710    Uiso  ? Al
   Al7        1.0     0.218028     0.213341     0.566826    Uiso  ? Al
   Al8        1.0     0.784248     0.092578     0.322475    Uiso  ? Al
   Al9        1.0     0.892412     0.209551     0.070121    Uiso  ? Al
   Al10       1.0     0.436158     0.095036     0.815191    Uiso  ? Al
   Al11       1.0     0.555463     0.206837     0.566938    Uiso  ? Al
   Al12       1.0     0.111471     0.425257     0.320810    Uiso  ? Al
   Al13       1.0     0.219450     0.540000     0.094872    Uiso  ? Al
   Al14       1.0     0.777073     0.424283     0.818573    Uiso  ? Al
   Al15       1.0     0.890141     0.535786     0.563681    Uiso  ? Al
   Al16       1.0     0.444433     0.431708     0.324722    Uiso  ? Al
   Al17       1.0     0.559238     0.541945     0.069403    Uiso  ? Al
   Al18       1.0     0.222972     0.530670     0.595104    Uiso  ? Al
   Al19       1.0     0.776987     0.427123     0.319060    Uiso  ? Al
   Al20       1.0     0.889847     0.532186     0.075169    Uiso  ? Al
   Al21       1.0     0.444028     0.431401     0.814952    Uiso  ? Al
   Al22       1.0     0.562711     0.533077     0.568600    Uiso  ? Al
   Al23       1.0     0.112569     0.755540     0.376792    Uiso  ? Al
   Al24       1.0     0.448973     0.757786     0.319224    Uiso  ? Al
   Al25       1.0     0.552141     0.868318     0.074497    Uiso  ? Al
   Al26       1.0     0.118716     0.759423     0.887547    Uiso  ? Al
   Al27       1.0     0.779157     0.760190     0.313955    Uiso  ? Al
   Al28       1.0     0.891991     0.873421     0.081392    Uiso  ? Al
   Al29       1.0     0.447356     0.755316     0.822115    Uiso  ? Al
   Al30       1.0     0.560179     0.868140     0.565180    Uiso  ? Al
   Hf1        1.0     0.554112     0.205225     0.075603    Uiso  ? Hf
   Hf2        1.0     0.779808     0.759010     0.828224    Uiso  ? Hf
   Hf3        1.0     0.221999     0.875057     0.596057    Uiso  ? Hf
   Mg1        1.0     0.114251     0.420387     0.823953    Uiso  ? Mg
   Mg2        1.0     0.226462     0.878268     0.087269    Uiso  ? Mg
   Mg3        1.0     0.874611     0.880145     0.565495    Uiso  ? Mg
   N1         1.0     0.222232     0.204560     0.378008    Uiso  ? N
   N2         1.0     0.100712     0.112004     0.132884    Uiso  ? N
   N3         1.0     0.886506     0.207875     0.879387    Uiso  ? N
   N4         1.0     0.769176     0.112447     0.626666    Uiso  ? N
   N5         1.0     0.556216     0.204273     0.370175    Uiso  ? N
   N6         1.0     0.435886     0.084955     0.135051    Uiso  ? N
   N7         1.0     0.229975     0.189065     0.883879    Uiso  ? N
   N8         1.0     0.095467     0.121754     0.630962    Uiso  ? N
   N9         1.0     0.887994     0.207604     0.379282    Uiso  ? N
   N10        1.0     0.791488     0.092612     0.131191    Uiso  ? N
   N11        1.0     0.553757     0.204579     0.868204    Uiso  ? N
   N12        1.0     0.444081     0.091827     0.623044    Uiso  ? N
   N13        1.0     0.224482     0.533933     0.354497    Uiso  ? N
   N14        1.0     0.111772     0.423756     0.127298    Uiso  ? N
   N15        1.0     0.881602     0.527013     0.888504    Uiso  ? N
   N16        1.0     0.777814     0.429873     0.627335    Uiso  ? N
   N17        1.0     0.557201     0.538056     0.379642    Uiso  ? N
   N18        1.0     0.443029     0.441082     0.131635    Uiso  ? N
   N19        1.0     0.230406     0.541743     0.860565    Uiso  ? N
   N20        1.0     0.107716     0.427082     0.615138    Uiso  ? N
   N21        1.0     0.886878     0.539188     0.371177    Uiso  ? N
   N22        1.0     0.775839     0.425933     0.130007    Uiso  ? N
   N23        1.0     0.557162     0.535999     0.877799    Uiso  ? N
   N24        1.0     0.448294     0.425404     0.622748    Uiso  ? N
   N25        1.0     0.226207     0.876142     0.373317    Uiso  ? N
   N26        1.0     0.110374     0.756231     0.082545    Uiso  ? N
   N27        1.0     0.889250     0.889461     0.880680    Uiso  ? N
   N28        1.0     0.772310     0.751101     0.624185    Uiso  ? N
   N29        1.0     0.558388     0.869988     0.376183    Uiso  ? N
   N30        1.0     0.461938     0.750171     0.132239    Uiso  ? N
   N31        1.0     0.221286     0.874391     0.838092    Uiso  ? N
   N32        1.0     0.112927     0.746134     0.575652    Uiso  ? N
   N33        1.0     0.887094     0.872228     0.355803    Uiso  ? N
   N34        1.0     0.777083     0.761446     0.118568    Uiso  ? N
   N35        1.0     0.539246     0.879520     0.883132    Uiso  ? N
   N36        1.0     0.467763     0.747004     0.630771    Uiso  ? N
