
#======================================================================
# CRYSTAL DATA
#----------------------------------------------------------------------
data_VESTA_phase_1

_chemical_name_common                  'Al   Hf   Mg   N                      '
_cell_length_a                         9.580493
_cell_length_b                         9.599013
_cell_length_c                         10.120162
_cell_angle_alpha                      90.039772
_cell_angle_beta                       89.958267
_cell_angle_gamma                      60.000584
_cell_volume                           805.999297
_space_group_name_H-M_alt              'P 1'
_space_group_IT_number                 1

loop_
_space_group_symop_operation_xyz
   'x, y, z'

loop_
   _atom_site_label
   _atom_site_occupancy
   _atom_site_fract_x
   _atom_site_fract_y
   _atom_site_fract_z
   _atom_site_adp_type
   _atom_site_U_iso_or_equiv
   _atom_site_type_symbol
   Al1        1.0     0.107573     0.100159     0.405362    Uiso  ? Al
   Al2        1.0     0.214773     0.208186     0.160152    Uiso  ? Al
   Al3        1.0     0.785629     0.094486     0.904493    Uiso  ? Al
   Al4        1.0     0.881373     0.214494     0.657929    Uiso  ? Al
   Al5        1.0     0.442135     0.093447     0.412213    Uiso  ? Al
   Al6        1.0     0.110015     0.098626     0.912046    Uiso  ? Al
   Al7        1.0     0.219870     0.210844     0.658082    Uiso  ? Al
   Al8        1.0     0.779397     0.096822     0.412989    Uiso  ? Al
   Al9        1.0     0.893674     0.208029     0.158077    Uiso  ? Al
   Al10       1.0     0.435347     0.093606     0.902013    Uiso  ? Al
   Al11       1.0     0.555831     0.206568     0.659658    Uiso  ? Al
   Al12       1.0     0.112713     0.427284     0.407049    Uiso  ? Al
   Al13       1.0     0.215960     0.542518     0.160409    Uiso  ? Al
   Al14       1.0     0.777555     0.423931     0.908732    Uiso  ? Al
   Al15       1.0     0.888701     0.534249     0.652103    Uiso  ? Al
   Al16       1.0     0.442704     0.431033     0.413177    Uiso  ? Al
   Al17       1.0     0.557638     0.542889     0.158042    Uiso  ? Al
   Al18       1.0     0.222626     0.534950     0.659416    Uiso  ? Al
   Al19       1.0     0.776868     0.427238     0.408293    Uiso  ? Al
   Al20       1.0     0.892924     0.533721     0.164757    Uiso  ? Al
   Al21       1.0     0.440355     0.435841     0.902385    Uiso  ? Al
   Al22       1.0     0.561531     0.532894     0.658627    Uiso  ? Al
   Al23       1.0     0.112642     0.757244     0.405890    Uiso  ? Al
   Al24       1.0     0.447949     0.757926     0.406172    Uiso  ? Al
   Al25       1.0     0.553838     0.867306     0.163392    Uiso  ? Al
   Al26       1.0     0.115569     0.758252     0.915275    Uiso  ? Al
   Al27       1.0     0.777417     0.759582     0.411462    Uiso  ? Al
   Al28       1.0     0.895676     0.867921     0.163875    Uiso  ? Al
   Al29       1.0     0.444043     0.757948     0.912507    Uiso  ? Al
   Al30       1.0     0.557362     0.870741     0.652768    Uiso  ? Al
   Hf1        1.0     0.553645     0.206623     0.149026    Uiso  ? Hf
   Hf2        1.0     0.779288     0.759376     0.904245    Uiso  ? Hf
   Hf3        1.0     0.220497     0.873611     0.649369    Uiso  ? Hf
   Mg1        1.0     0.116954     0.422221     0.908489    Uiso  ? Mg
   Mg2        1.0     0.222520     0.873539     0.159584    Uiso  ? Mg
   Mg3        1.0     0.886059     0.874431     0.650084    Uiso  ? Mg
   N1         1.0     0.224245     0.204451     0.350923    Uiso  ? N
   N2         1.0     0.103861     0.109289     0.097995    Uiso  ? N
   N3         1.0     0.889091     0.206748     0.848155    Uiso  ? N
   N4         1.0     0.769415     0.111956     0.598436    Uiso  ? N
   N5         1.0     0.553915     0.206112     0.355526    Uiso  ? N
   N6         1.0     0.435814     0.083746     0.094522    Uiso  ? N
   N7         1.0     0.226302     0.191416     0.842155    Uiso  ? N
   N8         1.0     0.097839     0.116222     0.594428    Uiso  ? N
   N9         1.0     0.886923     0.207274     0.347295    Uiso  ? N
   N10        1.0     0.794594     0.086879     0.097093    Uiso  ? N
   N11        1.0     0.555509     0.204216     0.858499    Uiso  ? N
   N12        1.0     0.444638     0.094283     0.600901    Uiso  ? N
   N13        1.0     0.225572     0.536500     0.350155    Uiso  ? N
   N14        1.0     0.112274     0.427051     0.114121    Uiso  ? N
   N15        1.0     0.883556     0.527781     0.840483    Uiso  ? N
   N16        1.0     0.776110     0.427802     0.596338    Uiso  ? N
   N17        1.0     0.555554     0.537192     0.348737    Uiso  ? N
   N18        1.0     0.436056     0.445911     0.094308    Uiso  ? N
   N19        1.0     0.227573     0.547643     0.845061    Uiso  ? N
   N20        1.0     0.112094     0.427299     0.598110    Uiso  ? N
   N21        1.0     0.888182     0.537968     0.353832    Uiso  ? N
   N22        1.0     0.777728     0.427839     0.100299    Uiso  ? N
   N23        1.0     0.557500     0.538105     0.848360    Uiso  ? N
   N24        1.0     0.445224     0.426565     0.602500    Uiso  ? N
   N25        1.0     0.222436     0.874328     0.372476    Uiso  ? N
   N26        1.0     0.105148     0.753566     0.101937    Uiso  ? N
   N27        1.0     0.899293     0.878603     0.854737    Uiso  ? N
   N28        1.0     0.771814     0.752717     0.599817    Uiso  ? N
   N29        1.0     0.554697     0.873530     0.352105    Uiso  ? N
   N30        1.0     0.460567     0.753199     0.097803    Uiso  ? N
   N31        1.0     0.222178     0.872593     0.859793    Uiso  ? N
   N32        1.0     0.118166     0.743305     0.591020    Uiso  ? N
   N33        1.0     0.887177     0.874274     0.354367    Uiso  ? N
   N34        1.0     0.777745     0.761186     0.112635    Uiso  ? N
   N35        1.0     0.540744     0.877038     0.842401    Uiso  ? N
   N36        1.0     0.461488     0.749332     0.595838    Uiso  ? N
