
#======================================================================
# CRYSTAL DATA
#----------------------------------------------------------------------
data_VESTA_phase_1

_chemical_name_common                  'Al   Hf   Mg   N                      '
_cell_length_a                         9.607703
_cell_length_b                         9.636308
_cell_length_c                         10.234147
_cell_angle_alpha                      90.201286
_cell_angle_beta                       89.876320
_cell_angle_gamma                      60.160332
_cell_volume                           821.873211
_space_group_name_H-M_alt              'P 1'
_space_group_IT_number                 1

loop_
_space_group_symop_operation_xyz
   'x, y, z'

loop_
   _atom_site_label
   _atom_site_occupancy
   _atom_site_fract_x
   _atom_site_fract_y
   _atom_site_fract_z
   _atom_site_adp_type
   _atom_site_U_iso_or_equiv
   _atom_site_type_symbol
   Al1        1.0     0.109374     0.097931     0.324113    Uiso  ? Al
   Al2        1.0     0.215542     0.204828     0.076292    Uiso  ? Al
   Al3        1.0     0.776668     0.102559     0.821038    Uiso  ? Al
   Al4        1.0     0.882461     0.215103     0.574688    Uiso  ? Al
   Al5        1.0     0.441656     0.090259     0.330068    Uiso  ? Al
   Al6        1.0     0.107378     0.101503     0.827281    Uiso  ? Al
   Al7        1.0     0.218623     0.215031     0.572943    Uiso  ? Al
   Al8        1.0     0.787097     0.089552     0.326765    Uiso  ? Al
   Al9        1.0     0.894404     0.207804     0.075782    Uiso  ? Al
   Al10       1.0     0.436600     0.096720     0.822994    Uiso  ? Al
   Al11       1.0     0.557903     0.201535     0.572735    Uiso  ? Al
   Al12       1.0     0.111150     0.423109     0.326051    Uiso  ? Al
   Al13       1.0     0.218071     0.546097     0.141729    Uiso  ? Al
   Al14       1.0     0.785173     0.419419     0.825303    Uiso  ? Al
   Al15       1.0     0.893013     0.535587     0.568481    Uiso  ? Al
   Al16       1.0     0.441500     0.434694     0.393030    Uiso  ? Al
   Al17       1.0     0.555513     0.539515     0.145575    Uiso  ? Al
   Al18       1.0     0.225546     0.535172     0.641500    Uiso  ? Al
   Al19       1.0     0.783729     0.422678     0.327039    Uiso  ? Al
   Al20       1.0     0.890140     0.532564     0.080264    Uiso  ? Al
   Al21       1.0     0.437537     0.440922     0.889237    Uiso  ? Al
   Al22       1.0     0.560531     0.527840     0.640900    Uiso  ? Al
   Al23       1.0     0.113066     0.752790     0.387448    Uiso  ? Al
   Al24       1.0     0.443620     0.766155     0.325005    Uiso  ? Al
   Al25       1.0     0.551522     0.868001     0.078612    Uiso  ? Al
   Al26       1.0     0.117626     0.756359     0.890336    Uiso  ? Al
   Al27       1.0     0.779230     0.760352     0.319590    Uiso  ? Al
   Al28       1.0     0.891859     0.870832     0.081765    Uiso  ? Al
   Al29       1.0     0.443033     0.761468     0.826084    Uiso  ? Al
   Al30       1.0     0.560593     0.868757     0.569547    Uiso  ? Al
   Hf1        1.0     0.555808     0.202320     0.089323    Uiso  ? Hf
   Hf2        1.0     0.777958     0.758185     0.830292    Uiso  ? Hf
   Hf3        1.0     0.221633     0.875440     0.597820    Uiso  ? Hf
   Mg1        1.0     0.113736     0.418458     0.830050    Uiso  ? Mg
   Mg2        1.0     0.223601     0.877643     0.085684    Uiso  ? Mg
   Mg3        1.0     0.876291     0.879389     0.571576    Uiso  ? Mg
   N1         1.0     0.223075     0.204642     0.385536    Uiso  ? N
   N2         1.0     0.101775     0.110012     0.140369    Uiso  ? N
   N3         1.0     0.888067     0.205952     0.887337    Uiso  ? N
   N4         1.0     0.768378     0.113710     0.636239    Uiso  ? N
   N5         1.0     0.558735     0.200092     0.372022    Uiso  ? N
   N6         1.0     0.433943     0.084569     0.142090    Uiso  ? N
   N7         1.0     0.229654     0.189106     0.891745    Uiso  ? N
   N8         1.0     0.096810     0.121380     0.638235    Uiso  ? N
   N9         1.0     0.889576     0.205281     0.387408    Uiso  ? N
   N10        1.0     0.795884     0.088886     0.138015    Uiso  ? N
   N11        1.0     0.553778     0.202504     0.882273    Uiso  ? N
   N12        1.0     0.444772     0.092509     0.631731    Uiso  ? N
   N13        1.0     0.228036     0.538208     0.329130    Uiso  ? N
   N14        1.0     0.110716     0.423189     0.134176    Uiso  ? N
   N15        1.0     0.882380     0.528202     0.896297    Uiso  ? N
   N16        1.0     0.785282     0.427191     0.632962    Uiso  ? N
   N17        1.0     0.554564     0.536341     0.338837    Uiso  ? N
   N18        1.0     0.434511     0.449032     0.080609    Uiso  ? N
   N19        1.0     0.230443     0.547916     0.826476    Uiso  ? N
   N20        1.0     0.109452     0.428355     0.620497    Uiso  ? N
   N21        1.0     0.888528     0.539464     0.378891    Uiso  ? N
   N22        1.0     0.782125     0.422275     0.137236    Uiso  ? N
   N23        1.0     0.557142     0.533605     0.833973    Uiso  ? N
   N24        1.0     0.444047     0.428880     0.580132    Uiso  ? N
   N25        1.0     0.223794     0.877835     0.381386    Uiso  ? N
   N26        1.0     0.110899     0.749074     0.077373    Uiso  ? N
   N27        1.0     0.886631     0.888863     0.884970    Uiso  ? N
   N28        1.0     0.772187     0.751607     0.629467    Uiso  ? N
   N29        1.0     0.558406     0.871023     0.383365    Uiso  ? N
   N30        1.0     0.454887     0.758871     0.138188    Uiso  ? N
   N31        1.0     0.218624     0.874739     0.844607    Uiso  ? N
   N32        1.0     0.116844     0.740056     0.575573    Uiso  ? N
   N33        1.0     0.888392     0.870861     0.364209    Uiso  ? N
   N34        1.0     0.775793     0.761752     0.126781    Uiso  ? N
   N35        1.0     0.538889     0.880007     0.889817    Uiso  ? N
   N36        1.0     0.464418     0.753558     0.633951    Uiso  ? N
