
#======================================================================
# CRYSTAL DATA
#----------------------------------------------------------------------
data_VESTA_phase_1

_chemical_name_common                  'Al   Hf   Mg   N                      '
_cell_length_a                         9.597024
_cell_length_b                         9.643118
_cell_length_c                         10.283976
_cell_angle_alpha                      90.352905
_cell_angle_beta                       90.259972
_cell_angle_gamma                      59.982086
_cell_volume                           824.059271
_space_group_name_H-M_alt              'P 1'
_space_group_IT_number                 1

loop_
_space_group_symop_operation_xyz
   'x, y, z'

loop_
   _atom_site_label
   _atom_site_occupancy
   _atom_site_fract_x
   _atom_site_fract_y
   _atom_site_fract_z
   _atom_site_adp_type
   _atom_site_U_iso_or_equiv
   _atom_site_type_symbol
   Al1        1.0     0.108075     0.101143     0.327673    Uiso  ? Al
   Al2        1.0     0.215469     0.202482     0.077454    Uiso  ? Al
   Al3        1.0     0.777344     0.105490     0.817059    Uiso  ? Al
   Al4        1.0     0.882626     0.217539     0.575296    Uiso  ? Al
   Al5        1.0     0.441040     0.091100     0.329671    Uiso  ? Al
   Al6        1.0     0.107970     0.103141     0.831066    Uiso  ? Al
   Al7        1.0     0.218582     0.215089     0.574139    Uiso  ? Al
   Al8        1.0     0.782189     0.096564     0.332081    Uiso  ? Al
   Al9        1.0     0.894883     0.206194     0.076828    Uiso  ? Al
   Al10       1.0     0.436870     0.097321     0.822248    Uiso  ? Al
   Al11       1.0     0.555785     0.204827     0.572810    Uiso  ? Al
   Al12       1.0     0.110918     0.423132     0.326618    Uiso  ? Al
   Al13       1.0     0.217960     0.543301     0.140714    Uiso  ? Al
   Al14       1.0     0.783991     0.421953     0.826416    Uiso  ? Al
   Al15       1.0     0.892235     0.534934     0.571229    Uiso  ? Al
   Al16       1.0     0.439727     0.435155     0.392715    Uiso  ? Al
   Al17       1.0     0.552576     0.542891     0.144467    Uiso  ? Al
   Al18       1.0     0.224773     0.536418     0.643220    Uiso  ? Al
   Al19       1.0     0.783342     0.422651     0.325175    Uiso  ? Al
   Al20       1.0     0.889371     0.530974     0.081021    Uiso  ? Al
   Al21       1.0     0.437394     0.442656     0.887404    Uiso  ? Al
   Al22       1.0     0.557921     0.534106     0.642606    Uiso  ? Al
   Al23       1.0     0.114233     0.753447     0.390424    Uiso  ? Al
   Al24       1.0     0.447523     0.754283     0.390508    Uiso  ? Al
   Al25       1.0     0.553935     0.869386     0.080406    Uiso  ? Al
   Al26       1.0     0.111956     0.763951     0.895492    Uiso  ? Al
   Al27       1.0     0.775566     0.755437     0.324870    Uiso  ? Al
   Al28       1.0     0.899757     0.863071     0.144364    Uiso  ? Al
   Al29       1.0     0.439508     0.756902     0.898089    Uiso  ? Al
   Al30       1.0     0.562609     0.873241     0.570045    Uiso  ? Al
   Hf1        1.0     0.557512     0.199181     0.083578    Uiso  ? Hf
   Hf2        1.0     0.778556     0.758811     0.832596    Uiso  ? Hf
   Hf3        1.0     0.224190     0.869748     0.624551    Uiso  ? Hf
   Mg1        1.0     0.113921     0.420697     0.832373    Uiso  ? Mg
   Mg2        1.0     0.223862     0.866590     0.143066    Uiso  ? Mg
   Mg3        1.0     0.885257     0.877182     0.610920    Uiso  ? Mg
   N1         1.0     0.223157     0.205381     0.387759    Uiso  ? N
   N2         1.0     0.101623     0.110136     0.143333    Uiso  ? N
   N3         1.0     0.887850     0.207191     0.888688    Uiso  ? N
   N4         1.0     0.766019     0.120404     0.632015    Uiso  ? N
   N5         1.0     0.556935     0.201117     0.375645    Uiso  ? N
   N6         1.0     0.434841     0.083874     0.143781    Uiso  ? N
   N7         1.0     0.230369     0.190484     0.893550    Uiso  ? N
   N8         1.0     0.098772     0.119826     0.638561    Uiso  ? N
   N9         1.0     0.888434     0.208029     0.389525    Uiso  ? N
   N10        1.0     0.794139     0.091555     0.141733    Uiso  ? N
   N11        1.0     0.554798     0.204829     0.878356    Uiso  ? N
   N12        1.0     0.444521     0.093680     0.632524    Uiso  ? N
   N13        1.0     0.226646     0.538739     0.328314    Uiso  ? N
   N14        1.0     0.110238     0.421546     0.135896    Uiso  ? N
   N15        1.0     0.883013     0.527662     0.898893    Uiso  ? N
   N16        1.0     0.784784     0.428186     0.636131    Uiso  ? N
   N17        1.0     0.551316     0.539173     0.332826    Uiso  ? N
   N18        1.0     0.434629     0.446157     0.079891    Uiso  ? N
   N19        1.0     0.228395     0.552992     0.828262    Uiso  ? N
   N20        1.0     0.109692     0.428593     0.623069    Uiso  ? N
   N21        1.0     0.888082     0.537373     0.382274    Uiso  ? N
   N22        1.0     0.781213     0.421670     0.138100    Uiso  ? N
   N23        1.0     0.552983     0.541609     0.831006    Uiso  ? N
   N24        1.0     0.442443     0.432342     0.579912    Uiso  ? N
   N25        1.0     0.221684     0.874959     0.362871    Uiso  ? N
   N26        1.0     0.105150     0.751892     0.079771    Uiso  ? N
   N27        1.0     0.896842     0.885259     0.843062    Uiso  ? N
   N28        1.0     0.770654     0.750160     0.630441    Uiso  ? N
   N29        1.0     0.559041     0.873708     0.382299    Uiso  ? N
   N30        1.0     0.454894     0.748033     0.082439    Uiso  ? N
   N31        1.0     0.224142     0.871448     0.835174    Uiso  ? N
   N32        1.0     0.118113     0.741046     0.571831    Uiso  ? N
   N33        1.0     0.893506     0.867114     0.340537    Uiso  ? N
   N34        1.0     0.774712     0.757587     0.132732    Uiso  ? N
   N35        1.0     0.541024     0.886429     0.889777    Uiso  ? N
   N36        1.0     0.464950     0.745039     0.579035    Uiso  ? N
