
#======================================================================
# CRYSTAL DATA
#----------------------------------------------------------------------
data_VESTA_phase_1

_chemical_name_common                  'Al   Hf   Mg   N                      '
_cell_length_a                         9.609208
_cell_length_b                         9.601043
_cell_length_c                         10.343031
_cell_angle_alpha                      90.183151
_cell_angle_beta                       90.038628
_cell_angle_gamma                      59.930614
_cell_volume                           825.805777
_space_group_name_H-M_alt              'P 1'
_space_group_IT_number                 1

loop_
_space_group_symop_operation_xyz
   'x, y, z'

loop_
   _atom_site_label
   _atom_site_occupancy
   _atom_site_fract_x
   _atom_site_fract_y
   _atom_site_fract_z
   _atom_site_adp_type
   _atom_site_U_iso_or_equiv
   _atom_site_type_symbol
   Al1        1.0     0.107659     0.100431     0.333841    Uiso  ? Al
   Al2        1.0     0.216748     0.201583     0.083397    Uiso  ? Al
   Al3        1.0     0.777468     0.106681     0.822767    Uiso  ? Al
   Al4        1.0     0.882004     0.217520     0.581414    Uiso  ? Al
   Al5        1.0     0.438316     0.095162     0.338469    Uiso  ? Al
   Al6        1.0     0.107612     0.102869     0.837223    Uiso  ? Al
   Al7        1.0     0.217489     0.216451     0.578953    Uiso  ? Al
   Al8        1.0     0.782913     0.095444     0.339276    Uiso  ? Al
   Al9        1.0     0.895456     0.204741     0.083836    Uiso  ? Al
   Al10       1.0     0.431707     0.104288     0.823421    Uiso  ? Al
   Al11       1.0     0.557324     0.203421     0.577348    Uiso  ? Al
   Al12       1.0     0.109208     0.423904     0.331511    Uiso  ? Al
   Al13       1.0     0.218857     0.543262     0.147287    Uiso  ? Al
   Al14       1.0     0.782330     0.423347     0.831767    Uiso  ? Al
   Al15       1.0     0.894267     0.531490     0.579313    Uiso  ? Al
   Al16       1.0     0.439697     0.435611     0.398390    Uiso  ? Al
   Al17       1.0     0.552573     0.544215     0.148790    Uiso  ? Al
   Al18       1.0     0.226101     0.535364     0.649771    Uiso  ? Al
   Al19       1.0     0.782855     0.424085     0.331018    Uiso  ? Al
   Al20       1.0     0.892363     0.526574     0.087268    Uiso  ? Al
   Al21       1.0     0.437732     0.441777     0.894601    Uiso  ? Al
   Al22       1.0     0.557109     0.533558     0.649014    Uiso  ? Al
   Al23       1.0     0.113818     0.753332     0.398305    Uiso  ? Al
   Al24       1.0     0.449711     0.755298     0.399255    Uiso  ? Al
   Al25       1.0     0.557421     0.859345     0.158528    Uiso  ? Al
   Al26       1.0     0.113993     0.762321     0.901304    Uiso  ? Al
   Al27       1.0     0.775360     0.763037     0.404315    Uiso  ? Al
   Al28       1.0     0.900189     0.859732     0.157851    Uiso  ? Al
   Al29       1.0     0.442411     0.760174     0.900374    Uiso  ? Al
   Al30       1.0     0.558687     0.867241     0.642780    Uiso  ? Al
   Hf1        1.0     0.559615     0.196633     0.090482    Uiso  ? Hf
   Hf2        1.0     0.772635     0.772330     0.895279    Uiso  ? Hf
   Hf3        1.0     0.222992     0.870053     0.630385    Uiso  ? Hf
   Mg1        1.0     0.111735     0.422248     0.836746    Uiso  ? Mg
   Mg2        1.0     0.225936     0.865634     0.146475    Uiso  ? Mg
   Mg3        1.0     0.888591     0.871770     0.637452    Uiso  ? Mg
   N1         1.0     0.221588     0.205632     0.394118    Uiso  ? N
   N2         1.0     0.101806     0.110158     0.150094    Uiso  ? N
   N3         1.0     0.887553     0.207036     0.896225    Uiso  ? N
   N4         1.0     0.765781     0.120857     0.639741    Uiso  ? N
   N5         1.0     0.558367     0.199261     0.383274    Uiso  ? N
   N6         1.0     0.431538     0.089666     0.150650    Uiso  ? N
   N7         1.0     0.230687     0.189369     0.900658    Uiso  ? N
   N8         1.0     0.097665     0.120895     0.645452    Uiso  ? N
   N9         1.0     0.887882     0.207787     0.396392    Uiso  ? N
   N10        1.0     0.795301     0.090621     0.150572    Uiso  ? N
   N11        1.0     0.557005     0.198970     0.886317    Uiso  ? N
   N12        1.0     0.439325     0.102357     0.634986    Uiso  ? N
   N13        1.0     0.226982     0.537997     0.333932    Uiso  ? N
   N14        1.0     0.109824     0.422562     0.141580    Uiso  ? N
   N15        1.0     0.882573     0.527494     0.902535    Uiso  ? N
   N16        1.0     0.783823     0.429257     0.643844    Uiso  ? N
   N17        1.0     0.550200     0.539885     0.336798    Uiso  ? N
   N18        1.0     0.435548     0.446207     0.085302    Uiso  ? N
   N19        1.0     0.230294     0.550518     0.834265    Uiso  ? N
   N20        1.0     0.109353     0.429201     0.631156    Uiso  ? N
   N21        1.0     0.891501     0.531796     0.389051    Uiso  ? N
   N22        1.0     0.781259     0.422546     0.144301    Uiso  ? N
   N23        1.0     0.552025     0.540390     0.836815    Uiso  ? N
   N24        1.0     0.442690     0.433027     0.584552    Uiso  ? N
   N25        1.0     0.222419     0.873724     0.369885    Uiso  ? N
   N26        1.0     0.104228     0.752588     0.085448    Uiso  ? N
   N27        1.0     0.899521     0.882042     0.842743    Uiso  ? N
   N28        1.0     0.769277     0.758810     0.590186    Uiso  ? N
   N29        1.0     0.558933     0.863546     0.344241    Uiso  ? N
   N30        1.0     0.461584     0.752592     0.083233    Uiso  ? N
   N31        1.0     0.223955     0.870556     0.841280    Uiso  ? N
   N32        1.0     0.117380     0.741293     0.578674    Uiso  ? N
   N33        1.0     0.893158     0.863465     0.345523    Uiso  ? N
   N34        1.0     0.773632     0.769252     0.100673    Uiso  ? N
   N35        1.0     0.538992     0.875049     0.829387    Uiso  ? N
   N36        1.0     0.465192     0.746894     0.583679    Uiso  ? N
