
#======================================================================
# CRYSTAL DATA
#----------------------------------------------------------------------
data_VESTA_phase_1

_chemical_name_common                  'Al   Hf   Mg   N '
_cell_length_a                         9.583024
_cell_length_b                         9.602903
_cell_length_c                         10.118644
_cell_angle_alpha                      89.934128
_cell_angle_beta                       89.960754
_cell_angle_gamma                      59.956558
_cell_volume                           806.060250
_space_group_name_H-M_alt              'P 1'
_space_group_IT_number                 1

loop_
_space_group_symop_operation_xyz
   'x, y, z'

loop_
   _atom_site_label
   _atom_site_occupancy
   _atom_site_fract_x
   _atom_site_fract_y
   _atom_site_fract_z
   _atom_site_adp_type
   _atom_site_U_iso_or_equiv
   _atom_site_type_symbol
   Al1        1.0     0.108353     0.098455     0.301031    Uiso  ? Al
   Al2        1.0     0.216153     0.205787     0.055214    Uiso  ? Al
   Al3        1.0     0.781991     0.099342     0.799610    Uiso  ? Al
   Al4        1.0     0.882100     0.214210     0.554479    Uiso  ? Al
   Al5        1.0     0.441271     0.091525     0.310580    Uiso  ? Al
   Al6        1.0     0.109098     0.101393     0.808105    Uiso  ? Al
   Al7        1.0     0.218490     0.213241     0.551768    Uiso  ? Al
   Al8        1.0     0.783450     0.091909     0.308908    Uiso  ? Al
   Al9        1.0     0.892862     0.208740     0.055243    Uiso  ? Al
   Al10       1.0     0.436464     0.095523     0.800245    Uiso  ? Al
   Al11       1.0     0.555920     0.206515     0.553932    Uiso  ? Al
   Al12       1.0     0.112131     0.427419     0.305322    Uiso  ? Al
   Al13       1.0     0.217924     0.544119     0.055208    Uiso  ? Al
   Al14       1.0     0.777406     0.424069     0.804333    Uiso  ? Al
   Al15       1.0     0.890185     0.535289     0.548687    Uiso  ? Al
   Al16       1.0     0.441700     0.433613     0.310370    Uiso  ? Al
   Al17       1.0     0.557382     0.542443     0.054878    Uiso  ? Al
   Al18       1.0     0.220700     0.533741     0.552331    Uiso  ? Al
   Al19       1.0     0.776660     0.427245     0.304217    Uiso  ? Al
   Al20       1.0     0.890804     0.532680     0.060971    Uiso  ? Al
   Al21       1.0     0.441336     0.432737     0.800357    Uiso  ? Al
   Al22       1.0     0.561520     0.533091     0.554707    Uiso  ? Al
   Al23       1.0     0.109359     0.759034     0.299340    Uiso  ? Al
   Al24       1.0     0.447426     0.757856     0.301281    Uiso  ? Al
   Al25       1.0     0.551312     0.868526     0.059508    Uiso  ? Al
   Al26       1.0     0.118114     0.756529     0.808299    Uiso  ? Al
   Al27       1.0     0.778478     0.761368     0.299561    Uiso  ? Al
   Al28       1.0     0.897249     0.870253     0.062071    Uiso  ? Al
   Al29       1.0     0.445947     0.757067     0.806828    Uiso  ? Al
   Al30       1.0     0.559878     0.868932     0.550089    Uiso  ? Al
   Hf1        1.0     0.553591     0.206453     0.061290    Uiso  ? Hf
   Hf2        1.0     0.780243     0.759192     0.812956    Uiso  ? Hf
   Hf3        1.0     0.220579     0.873377     0.568723    Uiso  ? Hf
   Mg1        1.0     0.116827     0.423145     0.805206    Uiso  ? Mg
   Mg2        1.0     0.222168     0.873885     0.051472    Uiso  ? Mg
   Mg3        1.0     0.884988     0.872739     0.549836    Uiso  ? Mg
   N1         1.0     0.221519     0.204678     0.363112    Uiso  ? N
   N2         1.0     0.102815     0.108705     0.116250    Uiso  ? N
   N3         1.0     0.887664     0.207306     0.865221    Uiso  ? N
   N4         1.0     0.771501     0.109098     0.613596    Uiso  ? N
   N5         1.0     0.554934     0.205562     0.357321    Uiso  ? N
   N6         1.0     0.436159     0.085681     0.120942    Uiso  ? N
   N7         1.0     0.229831     0.192133     0.869187    Uiso  ? N
   N8         1.0     0.098693     0.117676     0.616939    Uiso  ? N
   N9         1.0     0.888324     0.207031     0.365186    Uiso  ? N
   N10        1.0     0.792176     0.090839     0.117481    Uiso  ? N
   N11        1.0     0.554832     0.204241     0.854184    Uiso  ? N
   N12        1.0     0.444177     0.092178     0.609045    Uiso  ? N
   N13        1.0     0.222004     0.539598     0.362716    Uiso  ? N
   N14        1.0     0.114341     0.426284     0.114113    Uiso  ? N
   N15        1.0     0.883369     0.526904     0.874242    Uiso  ? N
   N16        1.0     0.777876     0.429334     0.613494    Uiso  ? N
   N17        1.0     0.556251     0.538697     0.365904    Uiso  ? N
   N18        1.0     0.438087     0.443764     0.120093    Uiso  ? N
   N19        1.0     0.231702     0.543711     0.869334    Uiso  ? N
   N20        1.0     0.108942     0.428727     0.599712    Uiso  ? N
   N21        1.0     0.886945     0.539416     0.356707    Uiso  ? N
   N22        1.0     0.775524     0.426275     0.115641    Uiso  ? N
   N23        1.0     0.556664     0.536139     0.863160    Uiso  ? N
   N24        1.0     0.443681     0.427720     0.609787    Uiso  ? N
   N25        1.0     0.221926     0.872427     0.357789    Uiso  ? N
   N26        1.0     0.108459     0.753820     0.114859    Uiso  ? N
   N27        1.0     0.898424     0.883785     0.869378    Uiso  ? N
   N28        1.0     0.772381     0.751215     0.609927    Uiso  ? N
   N29        1.0     0.556476     0.870133     0.361599    Uiso  ? N
   N30        1.0     0.457756     0.752311     0.116047    Uiso  ? N
   N31        1.0     0.222679     0.875322     0.835502    Uiso  ? N
   N32        1.0     0.114745     0.742911     0.620622    Uiso  ? N
   N33        1.0     0.888132     0.871363     0.347995    Uiso  ? N
   N34        1.0     0.776857     0.762683     0.104282    Uiso  ? N
   N35        1.0     0.539965     0.879856     0.868772    Uiso  ? N
   N36        1.0     0.464076     0.749808     0.616143    Uiso  ? N
