
#======================================================================
# CRYSTAL DATA
#----------------------------------------------------------------------
data_VESTA_phase_1

_chemical_name_common                  'Al   Hf   Mg   N                      '
_cell_length_a                         9.631940
_cell_length_b                         9.618820
_cell_length_c                         10.287393
_cell_angle_alpha                      90.024910
_cell_angle_beta                       89.976334
_cell_angle_gamma                      59.918682
_cell_volume                           824.735920
_space_group_name_H-M_alt              'P 1'
_space_group_IT_number                 1

loop_
_space_group_symop_operation_xyz
   'x, y, z'

loop_
   _atom_site_label
   _atom_site_occupancy
   _atom_site_fract_x
   _atom_site_fract_y
   _atom_site_fract_z
   _atom_site_adp_type
   _atom_site_U_iso_or_equiv
   _atom_site_type_symbol
   Al1        1.0     0.107284     0.101414     0.335994    Uiso  ? Al
   Al2        1.0     0.217762     0.200770     0.084597    Uiso  ? Al
   Al3        1.0     0.777628     0.105034     0.824685    Uiso  ? Al
   Al4        1.0     0.881483     0.217425     0.583285    Uiso  ? Al
   Al5        1.0     0.438282     0.095074     0.341486    Uiso  ? Al
   Al6        1.0     0.107592     0.102744     0.838185    Uiso  ? Al
   Al7        1.0     0.217051     0.216806     0.581425    Uiso  ? Al
   Al8        1.0     0.783153     0.095433     0.341969    Uiso  ? Al
   Al9        1.0     0.895416     0.204685     0.084779    Uiso  ? Al
   Al10       1.0     0.433188     0.102691     0.825336    Uiso  ? Al
   Al11       1.0     0.557150     0.203209     0.579050    Uiso  ? Al
   Al12       1.0     0.111448     0.423434     0.332334    Uiso  ? Al
   Al13       1.0     0.219865     0.544067     0.148130    Uiso  ? Al
   Al14       1.0     0.781483     0.423466     0.836191    Uiso  ? Al
   Al15       1.0     0.893458     0.532556     0.589492    Uiso  ? Al
   Al16       1.0     0.439529     0.436115     0.399844    Uiso  ? Al
   Al17       1.0     0.551846     0.544961     0.149481    Uiso  ? Al
   Al18       1.0     0.226109     0.535132     0.652647    Uiso  ? Al
   Al19       1.0     0.781672     0.423575     0.331738    Uiso  ? Al
   Al20       1.0     0.891591     0.529557     0.100254    Uiso  ? Al
   Al21       1.0     0.438230     0.441174     0.896655    Uiso  ? Al
   Al22       1.0     0.556126     0.533396     0.651305    Uiso  ? Al
   Al23       1.0     0.113819     0.753351     0.400422    Uiso  ? Al
   Al24       1.0     0.449727     0.755262     0.401294    Uiso  ? Al
   Al25       1.0     0.556129     0.860342     0.161674    Uiso  ? Al
   Al26       1.0     0.113644     0.762814     0.902486    Uiso  ? Al
   Al27       1.0     0.776823     0.760242     0.403422    Uiso  ? Al
   Al28       1.0     0.900763     0.860817     0.160848    Uiso  ? Al
   Al29       1.0     0.442116     0.760631     0.901423    Uiso  ? Al
   Al30       1.0     0.559322     0.866131     0.643810    Uiso  ? Al
   Hf1        1.0     0.559518     0.197278     0.094361    Uiso  ? Hf
   Hf2        1.0     0.772671     0.771474     0.900783    Uiso  ? Hf
   Hf3        1.0     0.222235     0.870905     0.630177    Uiso  ? Hf
   Mg1        1.0     0.113299     0.422538     0.845072    Uiso  ? Mg
   Mg2        1.0     0.225353     0.867132     0.147500    Uiso  ? Mg
   Mg3        1.0     0.887989     0.870634     0.638043    Uiso  ? Mg
   N1         1.0     0.221510     0.206174     0.395828    Uiso  ? N
   N2         1.0     0.101333     0.111281     0.151592    Uiso  ? N
   N3         1.0     0.887854     0.205643     0.896952    Uiso  ? N
   N4         1.0     0.765802     0.119621     0.640473    Uiso  ? N
   N5         1.0     0.557981     0.200157     0.383598    Uiso  ? N
   N6         1.0     0.431781     0.089341     0.152428    Uiso  ? N
   N7         1.0     0.232030     0.187166     0.901450    Uiso  ? N
   N8         1.0     0.096891     0.121496     0.646293    Uiso  ? N
   N9         1.0     0.887598     0.208147     0.397734    Uiso  ? N
   N10        1.0     0.795722     0.090463     0.152112    Uiso  ? N
   N11        1.0     0.557125     0.198592     0.888655    Uiso  ? N
   N12        1.0     0.439798     0.101367     0.635748    Uiso  ? N
   N13        1.0     0.227218     0.538751     0.335777    Uiso  ? N
   N14        1.0     0.113847     0.421476     0.140721    Uiso  ? N
   N15        1.0     0.881968     0.528593     0.904381    Uiso  ? N
   N16        1.0     0.782431     0.428744     0.645764    Uiso  ? N
   N17        1.0     0.549702     0.540532     0.338659    Uiso  ? N
   N18        1.0     0.435908     0.446458     0.087538    Uiso  ? N
   N19        1.0     0.230857     0.550483     0.837516    Uiso  ? N
   N20        1.0     0.109507     0.429126     0.634191    Uiso  ? N
   N21        1.0     0.890973     0.533747     0.378127    Uiso  ? N
   N22        1.0     0.779312     0.421768     0.143862    Uiso  ? N
   N23        1.0     0.551655     0.540380     0.839638    Uiso  ? N
   N24        1.0     0.442457     0.432321     0.587004    Uiso  ? N
   N25        1.0     0.222044     0.874638     0.373262    Uiso  ? N
   N26        1.0     0.104053     0.753803     0.087764    Uiso  ? N
   N27        1.0     0.899049     0.880580     0.844655    Uiso  ? N
   N28        1.0     0.769535     0.756996     0.590195    Uiso  ? N
   N29        1.0     0.558081     0.864331     0.347841    Uiso  ? N
   N30        1.0     0.461078     0.753856     0.085355    Uiso  ? N
   N31        1.0     0.223768     0.870739     0.842571    Uiso  ? N
   N32        1.0     0.117559     0.740836     0.581661    Uiso  ? N
   N33        1.0     0.893355     0.864317     0.349098    Uiso  ? N
   N34        1.0     0.773777     0.769407     0.107448    Uiso  ? N
   N35        1.0     0.540644     0.873859     0.831277    Uiso  ? N
   N36        1.0     0.464785     0.746487     0.586477    Uiso  ? N
