# generated using pymatgen
data_Sc5Al13N18
_symmetry_space_group_name_H-M   'P 1'
_cell_length_a   10.05795706
_cell_length_b   9.99802255
_cell_length_c   9.63357891
_cell_angle_alpha   90.04024576
_cell_angle_beta   90.12272685
_cell_angle_gamma   59.78942957
_symmetry_Int_Tables_number   1
_chemical_formula_structural   Sc5Al13N18
_chemical_formula_sum   'Sc10 Al26 N36'
_cell_volume   837.17397662
_cell_formula_units_Z   2
loop_
 _symmetry_equiv_pos_site_id
 _symmetry_equiv_pos_as_xyz
  1  'x, y, z'
loop_
 _atom_site_type_symbol
 _atom_site_label
 _atom_site_symmetry_multiplicity
 _atom_site_fract_x
 _atom_site_fract_y
 _atom_site_fract_z
 _atom_site_occupancy
  Al  Al0  1  0.12445774  0.08848019  0.32872790  1
  Al  Al1  1  0.21504589  0.20496299  0.07938745  1
  Al  Al2  1  0.78931499  0.09705681  0.81969167  1
  Al  Al3  1  0.90376714  0.20512005  0.57265672  1
  Al  Al4  1  0.43309498  0.10285813  0.31951699  1
  Al  Al5  1  0.55961967  0.20872930  0.07328902  1
  Al  Al6  1  0.10839690  0.09428937  0.82329358  1
  Al  Al7  1  0.21881162  0.20038200  0.57496653  1
  Al  Al8  1  0.10879743  0.41919063  0.32681483  1
  Al  Al9  1  0.78512965  0.41886693  0.82727791  1
  Al  Al10  1  0.89461080  0.52523797  0.57731971  1
  Al  Al11  1  0.44597403  0.42792385  0.32070955  1
  Al  Al12  1  0.55748758  0.54334517  0.07407362  1
  Al  Al13  1  0.10437317  0.42111146  0.82676392  1
  Al  Al14  1  0.77766605  0.43155907  0.32506790  1
  Al  Al15  1  0.88382460  0.53483118  0.07540065  1
  Al  Al16  1  0.44571351  0.43232549  0.83454484  1
  Al  Al17  1  0.12380066  0.76129372  0.32618402  1
  Al  Al18  1  0.23263125  0.87180573  0.07413323  1
  Al  Al19  1  0.89937028  0.87131319  0.57671006  1
  Al  Al20  1  0.43801293  0.76214656  0.32444517  1
  Al  Al21  1  0.55149731  0.86533488  0.08346984  1
  Al  Al22  1  0.11250099  0.76909242  0.82655446  1
  Al  Al23  1  0.22047065  0.87935844  0.57775880  1
  Al  Al24  1  0.43731008  0.76484107  0.82725930  1
  Al  Al25  1  0.53754864  0.88208492  0.57125131  1
  Sc  Sc26  1  0.77377753  0.10201447  0.35028196  1
  Sc  Sc27  1  0.89588786  0.20635473  0.09263206  1
  Sc  Sc28  1  0.43517446  0.09571736  0.85114528  1
  Sc  Sc29  1  0.54991683  0.20259830  0.59613354  1
  Sc  Sc30  1  0.22157605  0.53494082  0.09029874  1
  Sc  Sc31  1  0.21413795  0.54130630  0.58770821  1
  Sc  Sc32  1  0.55916446  0.54301938  0.59068910  1
  Sc  Sc33  1  0.77612854  0.75957232  0.83392623  1
  Sc  Sc34  1  0.77504803  0.75656455  0.34662442  1
  Sc  Sc35  1  0.89100080  0.87393314  0.09015199  1
  N  N36  1  0.22302967  0.20454384  0.37585396  1
  N  N37  1  0.13767904  0.07829183  0.13354088  1
  N  N38  1  0.89331812  0.20230903  0.86953424  1
  N  N39  1  0.79737516  0.09082957  0.61036257  1
  N  N40  1  0.52963344  0.21699420  0.37365514  1
  N  N41  1  0.44141171  0.10069224  0.11289605  1
  N  N42  1  0.19747990  0.21283152  0.88355996  1
  N  N43  1  0.11331918  0.09344056  0.62413092  1
  N  N44  1  0.90528225  0.21385103  0.36796874  1
  N  N45  1  0.76144164  0.10609596  0.13151979  1
  N  N46  1  0.57069947  0.21048626  0.86713178  1
  N  N47  1  0.42767695  0.08803258  0.63027011  1
  N  N48  1  0.22320653  0.53623195  0.35502812  1
  N  N49  1  0.09542408  0.41735732  0.13021728  1
  N  N50  1  0.89427949  0.52129892  0.87731513  1
  N  N51  1  0.79747938  0.41440152  0.62995565  1
  N  N52  1  0.55591780  0.53839696  0.36865887  1
  N  N53  1  0.46274400  0.42242910  0.11835659  1
  N  N54  1  0.21581517  0.53951970  0.86186764  1
  N  N55  1  0.10367364  0.41307635  0.62900448  1
  N  N56  1  0.89890185  0.51814957  0.38159811  1
  N  N57  1  0.76553894  0.44686787  0.12788434  1
  N  N58  1  0.55761644  0.54120376  0.86913385  1
  N  N59  1  0.44094473  0.43314151  0.63869493  1
  N  N60  1  0.22604522  0.87073738  0.38079159  1
  N  N61  1  0.12742040  0.77095560  0.12919156  1
  N  N62  1  0.89694574  0.88300466  0.86595669  1
  N  N63  1  0.77385647  0.76285093  0.60322454  1
  N  N64  1  0.52896364  0.88682264  0.37079264  1
  N  N65  1  0.44396570  0.75807630  0.12699899  1
  N  N66  1  0.22248839  0.87419593  0.87588248  1
  N  N67  1  0.10758051  0.78034191  0.62869167  1
  N  N68  1  0.91276237  0.85917092  0.37276274  1
  N  N69  1  0.76999975  0.75215084  0.11564226  1
  N  N70  1  0.54488117  0.86005375  0.88713054  1
  N  N71  1  0.43150938  0.78188871  0.63037359  1
