# generated using pymatgen
data_Sc5Al13N18
_symmetry_space_group_name_H-M   'P 1'
_cell_length_a   10.28250917
_cell_length_b   10.23360288
_cell_length_c   8.96774303
_cell_angle_alpha   90.05925714
_cell_angle_beta   90.13009387
_cell_angle_gamma   59.75311673
_symmetry_Int_Tables_number   1
_chemical_formula_structural   Sc5Al13N18
_chemical_formula_sum   'Sc10 Al26 N36'
_cell_volume   815.18189240
_cell_formula_units_Z   2
loop_
 _symmetry_equiv_pos_site_id
 _symmetry_equiv_pos_as_xyz
  1  'x, y, z'
loop_
 _atom_site_type_symbol
 _atom_site_label
 _atom_site_symmetry_multiplicity
 _atom_site_fract_x
 _atom_site_fract_y
 _atom_site_fract_z
 _atom_site_occupancy
  Al  Al0  1  0.12115805  0.08908956  0.33811394  1
  Al  Al1  1  0.21678618  0.20409173  0.09144859  1
  Al  Al2  1  0.78403165  0.09922374  0.84116922  1
  Al  Al3  1  0.90135362  0.20393813  0.59194609  1
  Al  Al4  1  0.43330053  0.10092126  0.33421324  1
  Al  Al5  1  0.55544835  0.20847055  0.09522576  1
  Al  Al6  1  0.11190704  0.09302149  0.83182476  1
  Al  Al7  1  0.21757839  0.20112326  0.58109829  1
  Al  Al8  1  0.10766779  0.42038527  0.33692151  1
  Al  Al9  1  0.78152634  0.42230853  0.83718052  1
  Al  Al10  1  0.89371767  0.52558229  0.58944057  1
  Al  Al11  1  0.44375498  0.43006629  0.33396713  1
  Al  Al12  1  0.55693011  0.54312332  0.09127080  1
  Al  Al13  1  0.10554114  0.41965761  0.83590715  1
  Al  Al14  1  0.78026216  0.42901218  0.33626551  1
  Al  Al15  1  0.88507550  0.53458163  0.08312997  1
  Al  Al16  1  0.44847654  0.43024386  0.84713061  1
  Al  Al17  1  0.12185367  0.76234608  0.33759533  1
  Al  Al18  1  0.23176685  0.87229930  0.08173699  1
  Al  Al19  1  0.89774201  0.87449938  0.59945337  1
  Al  Al20  1  0.43659356  0.76396184  0.33338098  1
  Al  Al21  1  0.54947660  0.86779393  0.09615269  1
  Al  Al22  1  0.11511913  0.76818206  0.83733253  1
  Al  Al23  1  0.22117296  0.87886371  0.58677990  1
  Al  Al24  1  0.43879283  0.76342330  0.83749253  1
  Al  Al25  1  0.54037639  0.87965928  0.57946957  1
  Sc  Sc26  1  0.77861389  0.09953081  0.35408758  1
  Sc  Sc27  1  0.89724170  0.20755604  0.09771998  1
  Sc  Sc28  1  0.43596926  0.09612373  0.85600780  1
  Sc  Sc29  1  0.55282028  0.20299473  0.60186476  1
  Sc  Sc30  1  0.22148456  0.53494606  0.09683912  1
  Sc  Sc31  1  0.21388584  0.54126438  0.59898434  1
  Sc  Sc32  1  0.55843329  0.54358543  0.59736411  1
  Sc  Sc33  1  0.77380855  0.75930873  0.84486882  1
  Sc  Sc34  1  0.77683148  0.75634508  0.35294748  1
  Sc  Sc35  1  0.89353524  0.87131718  0.09721198  1
  N  N36  1  0.22091877  0.20500567  0.36378401  1
  N  N37  1  0.13465869  0.07948663  0.12261969  1
  N  N38  1  0.89449854  0.20329183  0.85455279  1
  N  N39  1  0.79477191  0.09202814  0.60830959  1
  N  N40  1  0.53577264  0.21476614  0.35350953  1
  N  N41  1  0.44033290  0.09947064  0.11206100  1
  N  N42  1  0.20151883  0.21113130  0.87413391  1
  N  N43  1  0.11441070  0.09295051  0.61413892  1
  N  N44  1  0.90379988  0.21283720  0.36164363  1
  N  N45  1  0.76549166  0.10431859  0.10870342  1
  N  N46  1  0.56600827  0.21107880  0.86158253  1
  N  N47  1  0.42956152  0.08968300  0.61072290  1
  N  N48  1  0.22206542  0.53722066  0.35244847  1
  N  N49  1  0.09670582  0.41855037  0.11983859  1
  N  N50  1  0.89451568  0.52164729  0.86378226  1
  N  N51  1  0.79379026  0.41634333  0.61830968  1
  N  N52  1  0.55589059  0.53930592  0.35385681  1
  N  N53  1  0.45975829  0.42396328  0.10762319  1
  N  N54  1  0.21704797  0.53829953  0.85501986  1
  N  N55  1  0.10455448  0.41293456  0.61744381  1
  N  N56  1  0.89725615  0.52074922  0.37285437  1
  N  N57  1  0.76798409  0.44477718  0.11613091  1
  N  N58  1  0.55706024  0.54152850  0.86367302  1
  N  N59  1  0.44239551  0.43193842  0.62168466  1
  N  N60  1  0.22478145  0.87175313  0.37148696  1
  N  N61  1  0.12730286  0.76954434  0.11524809  1
  N  N62  1  0.89747511  0.88046632  0.84983548  1
  N  N63  1  0.77162052  0.76374656  0.60258623  1
  N  N64  1  0.53288350  0.88334956  0.35767403  1
  N  N65  1  0.44256153  0.75921704  0.11763661  1
  N  N66  1  0.22352083  0.87448492  0.86514895  1
  N  N67  1  0.10965158  0.77858445  0.61787466  1
  N  N68  1  0.91015971  0.86091580  0.36275001  1
  N  N69  1  0.77092392  0.75201751  0.10607183  1
  N  N70  1  0.54275382  0.86386244  0.87692702  1
  N  N71  1  0.43290868  0.78019534  0.61867459  1
