# generated using pymatgen
data_Sc5Al13N18
_symmetry_space_group_name_H-M   'P 1'
_cell_length_a   10.10892584
_cell_length_b   10.04998624
_cell_length_c   9.48882148
_cell_angle_alpha   89.97446990
_cell_angle_beta   89.99676750
_cell_angle_gamma   59.76869846
_symmetry_Int_Tables_number   1
_chemical_formula_structural   Sc5Al13N18
_chemical_formula_sum   'Sc10 Al26 N36'
_cell_volume   832.90674138
_cell_formula_units_Z   2
loop_
 _symmetry_equiv_pos_site_id
 _symmetry_equiv_pos_as_xyz
  1  'x, y, z'
loop_
 _atom_site_type_symbol
 _atom_site_label
 _atom_site_symmetry_multiplicity
 _atom_site_fract_x
 _atom_site_fract_y
 _atom_site_fract_z
 _atom_site_occupancy
  Al  Al0  1  0.11436560  0.09401190  0.37845648  1
  Al  Al1  1  0.22440947  0.19940950  0.12975255  1
  Al  Al2  1  0.77629797  0.10364648  0.87467633  1
  Al  Al3  1  0.90029146  0.20061696  0.63263260  1
  Al  Al4  1  0.43092634  0.09711383  0.37652414  1
  Al  Al5  1  0.54918667  0.20705658  0.13022216  1
  Al  Al6  1  0.12008422  0.08753518  0.87432338  1
  Al  Al7  1  0.21104545  0.20428611  0.62344747  1
  Al  Al8  1  0.10921121  0.42028483  0.37262922  1
  Al  Al9  1  0.77258144  0.43206864  0.87390999  1
  Al  Al10  1  0.89565943  0.52511028  0.62439139  1
  Al  Al11  1  0.43877385  0.43225269  0.36734247  1
  Al  Al12  1  0.55874568  0.54259610  0.13095844  1
  Al  Al13  1  0.10378210  0.41935653  0.87975642  1
  Al  Al14  1  0.78921542  0.42016730  0.37809721  1
  Al  Al15  1  0.88244544  0.53516711  0.12808741  1
  Al  Al16  1  0.45340067  0.42755892  0.88350358  1
  Al  Al17  1  0.11603767  0.76400987  0.37930897  1
  Al  Al18  1  0.23094989  0.87229671  0.12873388  1
  Al  Al19  1  0.89601086  0.87818606  0.63086072  1
  Al  Al20  1  0.43554464  0.77024898  0.37106563  1
  Al  Al21  1  0.54676496  0.87493719  0.12718551  1
  Al  Al22  1  0.12137219  0.76545284  0.87144311  1
  Al  Al23  1  0.22126148  0.87942462  0.62464802  1
  Al  Al24  1  0.43955196  0.75753591  0.88246507  1
  Al  Al25  1  0.54185340  0.87444437  0.62409842  1
  Sc  Sc26  1  0.78537337  0.09675772  0.35813726  1
  Sc  Sc27  1  0.89841499  0.21078788  0.10362600  1
  Sc  Sc28  1  0.43757300  0.09989014  0.86246012  1
  Sc  Sc29  1  0.55965437  0.20251213  0.60696862  1
  Sc  Sc30  1  0.22163692  0.53624361  0.11030204  1
  Sc  Sc31  1  0.21466454  0.53900865  0.61544322  1
  Sc  Sc32  1  0.55741741  0.54452817  0.60863317  1
  Sc  Sc33  1  0.77477663  0.75580000  0.85564097  1
  Sc  Sc34  1  0.77576120  0.76020259  0.36545751  1
  Sc  Sc35  1  0.89435829  0.86852607  0.10337758  1
  N  N36  1  0.22005153  0.20347862  0.33087795  1
  N  N37  1  0.14027011  0.07897293  0.07311411  1
  N  N38  1  0.89344221  0.20516257  0.84297765  1
  N  N39  1  0.79996609  0.08914807  0.58766483  1
  N  N40  1  0.53632683  0.21082443  0.33886786  1
  N  N41  1  0.44153576  0.09859838  0.08818140  1
  N  N42  1  0.20212338  0.21285629  0.82304603  1
  N  N43  1  0.11063911  0.09298506  0.58064875  1
  N  N44  1  0.90582653  0.21201638  0.32707110  1
  N  N45  1  0.75999829  0.10753482  0.08819450  1
  N  N46  1  0.56464205  0.21605714  0.83382192  1
  N  N47  1  0.42883242  0.08996933  0.58577610  1
  N  N48  1  0.21670668  0.54110863  0.34322110  1
  N  N49  1  0.09683602  0.41465567  0.08092360  1
  N  N50  1  0.89636705  0.51820565  0.82437975  1
  N  N51  1  0.79772214  0.41263430  0.57999393  1
  N  N52  1  0.56027165  0.53979130  0.33769221  1
  N  N53  1  0.46250007  0.42227298  0.08975273  1
  N  N54  1  0.22302235  0.53277999  0.85039145  1
  N  N55  1  0.10262717  0.41491026  0.57274748  1
  N  N56  1  0.89652856  0.52167366  0.32922902  1
  N  N57  1  0.76395632  0.44933253  0.07406459  1
  N  N58  1  0.55243463  0.54108953  0.83600183  1
  N  N59  1  0.44138063  0.43249018  0.56740318  1
  N  N60  1  0.22032624  0.87425229  0.32961807  1
  N  N61  1  0.12995641  0.76986054  0.07056638  1
  N  N62  1  0.89913168  0.88190742  0.84089566  1
  N  N63  1  0.77779536  0.76275324  0.60061707  1
  N  N64  1  0.53351788  0.88485922  0.32888709  1
  N  N65  1  0.44478396  0.76005406  0.08548756  1
  N  N66  1  0.22757752  0.87116761  0.82473179  1
  N  N67  1  0.10639784  0.77969843  0.58365481  1
  N  N68  1  0.91009114  0.86009216  0.32917244  1
  N  N69  1  0.76547536  0.75361205  0.09297062  1
  N  N70  1  0.53942967  0.86266945  0.82536114  1
  N  N71  1  0.42945279  0.78177879  0.56949913  1
