# generated using pymatgen
data_Sc5Al13N18
_symmetry_space_group_name_H-M   'P 1'
_cell_length_a   10.38803364
_cell_length_b   10.34318723
_cell_length_c   8.66583734
_cell_angle_alpha   90.03695284
_cell_angle_beta   90.06566626
_cell_angle_gamma   59.73194037
_symmetry_Int_Tables_number   1
_chemical_formula_structural   Sc5Al13N18
_chemical_formula_sum   'Sc10 Al26 N36'
_cell_volume   804.17241110
_cell_formula_units_Z   2
loop_
 _symmetry_equiv_pos_site_id
 _symmetry_equiv_pos_as_xyz
  1  'x, y, z'
loop_
 _atom_site_type_symbol
 _atom_site_label
 _atom_site_symmetry_multiplicity
 _atom_site_fract_x
 _atom_site_fract_y
 _atom_site_fract_z
 _atom_site_occupancy
  Al  Al0  1  0.11768950  0.09174998  0.35714371  1
  Al  Al1  1  0.22002292  0.20267759  0.10926352  1
  Al  Al2  1  0.78207617  0.09975073  0.84892318  1
  Al  Al3  1  0.90055076  0.20325361  0.60552946  1
  Al  Al4  1  0.43371498  0.09840866  0.34877442  1
  Al  Al5  1  0.55382285  0.20872140  0.10402576  1
  Al  Al6  1  0.11489182  0.09067042  0.85295320  1
  Al  Al7  1  0.21560516  0.20227605  0.60248177  1
  Al  Al8  1  0.10842720  0.41976137  0.35395867  1
  Al  Al9  1  0.77912812  0.42594379  0.85200852  1
  Al  Al10  1  0.89349978  0.52677774  0.60313336  1
  Al  Al11  1  0.44290421  0.43045691  0.34974528  1
  Al  Al12  1  0.55740125  0.54174635  0.10563606  1
  Al  Al13  1  0.10537412  0.42077798  0.85631804  1
  Al  Al14  1  0.78192363  0.42589221  0.35443569  1
  Al  Al15  1  0.88497368  0.53480223  0.10487374  1
  Al  Al16  1  0.44930948  0.42943110  0.85978953  1
  Al  Al17  1  0.11897336  0.76331756  0.35840466  1
  Al  Al18  1  0.22996339  0.87257340  0.10846828  1
  Al  Al19  1  0.89774189  0.87560795  0.60588674  1
  Al  Al20  1  0.43750129  0.76625510  0.35227576  1
  Al  Al21  1  0.54856756  0.87059911  0.10754317  1
  Al  Al22  1  0.11734232  0.76751045  0.85192818  1
  Al  Al23  1  0.22198478  0.87878828  0.60634615  1
  Al  Al24  1  0.43874385  0.76057000  0.86267956  1
  Al  Al25  1  0.54225166  0.87683189  0.59914526  1
  Sc  Sc26  1  0.77975483  0.09920615  0.35425940  1
  Sc  Sc27  1  0.89655529  0.20886094  0.09950053  1
  Sc  Sc28  1  0.43686123  0.09686130  0.85714437  1
  Sc  Sc29  1  0.55427428  0.20336619  0.60237612  1
  Sc  Sc30  1  0.22212320  0.53571510  0.10215558  1
  Sc  Sc31  1  0.21404954  0.54028227  0.60365903  1
  Sc  Sc32  1  0.55764421  0.54447040  0.60138420  1
  Sc  Sc33  1  0.77522200  0.75728713  0.84812336  1
  Sc  Sc34  1  0.77509601  0.75823710  0.35568168  1
  Sc  Sc35  1  0.89430471  0.87049107  0.09859547  1
  N  N36  1  0.21974755  0.20427681  0.34889967  1
  N  N37  1  0.13232991  0.08232096  0.09857712  1
  N  N38  1  0.89453865  0.20466158  0.84472497  1
  N  N39  1  0.79350394  0.09222937  0.60828207  1
  N  N40  1  0.53815694  0.21298155  0.34466835  1
  N  N41  1  0.44072223  0.09765167  0.10935760  1
  N  N42  1  0.20485160  0.21084331  0.84930401  1
  N  N43  1  0.11391936  0.09206916  0.59922059  1
  N  N44  1  0.90270102  0.21159210  0.35602567  1
  N  N45  1  0.76611005  0.10392223  0.09747154  1
  N  N46  1  0.56302801  0.21289183  0.85830484  1
  N  N47  1  0.43066933  0.09030321  0.59579371  1
  N  N48  1  0.21951236  0.53966526  0.35114622  1
  N  N49  1  0.09911574  0.41775686  0.10188721  1
  N  N50  1  0.89503081  0.52199626  0.84703538  1
  N  N51  1  0.79242731  0.41756711  0.60237576  1
  N  N52  1  0.55785369  0.53950801  0.34331970  1
  N  N53  1  0.45883154  0.42422269  0.10238128  1
  N  N54  1  0.22079536  0.53523044  0.85283295  1
  N  N55  1  0.10393013  0.41513999  0.59675059  1
  N  N56  1  0.89567579  0.52241011  0.35263897  1
  N  N57  1  0.76871692  0.44329566  0.09842869  1
  N  N58  1  0.55485613  0.54117920  0.85889520  1
  N  N59  1  0.44307284  0.43147101  0.59815075  1
  N  N60  1  0.22231946  0.87356927  0.34904516  1
  N  N61  1  0.12587617  0.76922988  0.09446774  1
  N  N62  1  0.89873600  0.87874560  0.84286600  1
  N  N63  1  0.77334248  0.76206536  0.60161054  1
  N  N64  1  0.53554191  0.88207769  0.34715993  1
  N  N65  1  0.44313579  0.76037372  0.10314993  1
  N  N66  1  0.22562283  0.87310484  0.84619444  1
  N  N67  1  0.11045630  0.77734424  0.60277277  1
  N  N68  1  0.90768721  0.86286282  0.35821830  1
  N  N69  1  0.76952322  0.75333083  0.10193329  1
  N  N70  1  0.54211606  0.86436799  0.85315275  1
  N  N71  1  0.43261984  0.77809788  0.59292417  1
