# generated using pymatgen
data_Sc5Al13N18
_symmetry_space_group_name_H-M   'P 1'
_cell_length_a   10.15588085
_cell_length_b   10.09924440
_cell_length_c   9.35031566
_cell_angle_alpha   89.98277243
_cell_angle_beta   90.00481189
_cell_angle_gamma   59.75994889
_symmetry_Int_Tables_number   1
_chemical_formula_structural   Sc5Al13N18
_chemical_formula_sum   'Sc10 Al26 N36'
_cell_volume   828.52904245
_cell_formula_units_Z   2
loop_
 _symmetry_equiv_pos_site_id
 _symmetry_equiv_pos_as_xyz
  1  'x, y, z'
loop_
 _atom_site_type_symbol
 _atom_site_label
 _atom_site_symmetry_multiplicity
 _atom_site_fract_x
 _atom_site_fract_y
 _atom_site_fract_z
 _atom_site_occupancy
  Al  Al0  1  0.11457489  0.09379166  0.37707357  1
  Al  Al1  1  0.22391251  0.19957995  0.12819476  1
  Al  Al2  1  0.77730216  0.10297051  0.86938109  1
  Al  Al3  1  0.90049661  0.20088080  0.63009067  1
  Al  Al4  1  0.43128506  0.09725147  0.37322341  1
  Al  Al5  1  0.54988389  0.20689764  0.12673021  1
  Al  Al6  1  0.11983692  0.08779627  0.87255893  1
  Al  Al7  1  0.21145989  0.20423077  0.62186637  1
  Al  Al8  1  0.10901311  0.42004804  0.37060311  1
  Al  Al9  1  0.77325053  0.43170153  0.87146034  1
  Al  Al10  1  0.89574945  0.52520554  0.62230962  1
  Al  Al11  1  0.43933381  0.43197814  0.36472279  1
  Al  Al12  1  0.55899728  0.54238386  0.12860104  1
  Al  Al13  1  0.10404308  0.41952158  0.87831746  1
  Al  Al14  1  0.78851341  0.42054070  0.37691810  1
  Al  Al15  1  0.88265287  0.53495901  0.12670768  1
  Al  Al16  1  0.45290724  0.42786068  0.88186838  1
  Al  Al17  1  0.11633103  0.76415463  0.37825152  1
  Al  Al18  1  0.23035440  0.87255085  0.12729968  1
  Al  Al19  1  0.89591303  0.87759753  0.62727258  1
  Al  Al20  1  0.43574011  0.76999456  0.36875692  1
  Al  Al21  1  0.54704455  0.87460090  0.12557584  1
  Al  Al22  1  0.12101962  0.76571677  0.86852854  1
  Al  Al23  1  0.22172952  0.87933809  0.62329711  1
  Al  Al24  1  0.43944418  0.75776417  0.88143677  1
  Al  Al25  1  0.54171108  0.87454837  0.62187239  1
  Sc  Sc26  1  0.78458160  0.09721226  0.35679208  1
  Sc  Sc27  1  0.89799887  0.21064918  0.10247364  1
  Sc  Sc28  1  0.43749639  0.09941175  0.86092597  1
  Sc  Sc29  1  0.55856426  0.20298204  0.60554192  1
  Sc  Sc30  1  0.22135967  0.53672124  0.10894387  1
  Sc  Sc31  1  0.21476386  0.53874912  0.61283674  1
  Sc  Sc32  1  0.55703231  0.54475455  0.60697382  1
  Sc  Sc33  1  0.77491507  0.75581711  0.85409850  1
  Sc  Sc34  1  0.77559962  0.76006417  0.36327763  1
  Sc  Sc35  1  0.89454406  0.86891795  0.10209869  1
  N  N36  1  0.21992508  0.20332137  0.33255443  1
  N  N37  1  0.13924341  0.07941468  0.07506648  1
  N  N38  1  0.89380508  0.20517816  0.84334549  1
  N  N39  1  0.79880831  0.08980707  0.59171424  1
  N  N40  1  0.53654070  0.21083316  0.33993305  1
  N  N41  1  0.44136404  0.09834215  0.09067914  1
  N  N42  1  0.20243159  0.21282355  0.82523863  1
  N  N43  1  0.11108693  0.09279655  0.58252080  1
  N  N44  1  0.90540434  0.21186331  0.33032769  1
  N  N45  1  0.76096748  0.10698325  0.09028800  1
  N  N46  1  0.56414626  0.21583507  0.83732352  1
  N  N47  1  0.42898584  0.09001273  0.58735363  1
  N  N48  1  0.21660726  0.54135632  0.34484248  1
  N  N49  1  0.09719644  0.41503404  0.08331219  1
  N  N50  1  0.89652352  0.51875424  0.82609533  1
  N  N51  1  0.79698742  0.41325724  0.58261613  1
  N  N52  1  0.56055175  0.53969247  0.33867226  1
  N  N53  1  0.46190637  0.42271734  0.09232907  1
  N  N54  1  0.22318106  0.53258658  0.85092417  1
  N  N55  1  0.10287761  0.41472718  0.57433237  1
  N  N56  1  0.89621061  0.52164892  0.33156684  1
  N  N57  1  0.76463189  0.44864419  0.07554835  1
  N  N58  1  0.55232990  0.54125406  0.83844413  1
  N  N59  1  0.44163449  0.43238839  0.56940661  1
  N  N60  1  0.22018462  0.87434815  0.33139617  1
  N  N61  1  0.12946372  0.76990030  0.07203087  1
  N  N62  1  0.89901621  0.88127225  0.84138482  1
  N  N63  1  0.77748755  0.76260692  0.60077128  1
  N  N64  1  0.53383062  0.88462790  0.33088498  1
  N  N65  1  0.44450974  0.76020989  0.08791421  1
  N  N66  1  0.22777960  0.87141050  0.82656877  1
  N  N67  1  0.10705633  0.77936735  0.58653689  1
  N  N68  1  0.90972846  0.86068760  0.33335003  1
  N  N69  1  0.76608209  0.75358938  0.09507567  1
  N  N70  1  0.53985640  0.86248124  0.82763728  1
  N  N71  1  0.42964536  0.78136942  0.57086009  1
