# generated using pymatgen
data_Sc5Al13N18
_symmetry_space_group_name_H-M   'P 1'
_cell_length_a   9.95167529
_cell_length_b   9.89210165
_cell_length_c   9.92435170
_cell_angle_alpha   90.02914144
_cell_angle_beta   90.10387590
_cell_angle_gamma   59.81318063
_symmetry_Int_Tables_number   1
_chemical_formula_structural   Sc5Al13N18
_chemical_formula_sum   'Sc10 Al26 N36'
_cell_volume   844.49316019
_cell_formula_units_Z   2
loop_
 _symmetry_equiv_pos_site_id
 _symmetry_equiv_pos_as_xyz
  1  'x, y, z'
loop_
 _atom_site_type_symbol
 _atom_site_label
 _atom_site_symmetry_multiplicity
 _atom_site_fract_x
 _atom_site_fract_y
 _atom_site_fract_z
 _atom_site_occupancy
  Al  Al0  1  0.12376326  0.08919202  0.32691764  1
  Al  Al1  1  0.21598185  0.20444466  0.07682573  1
  Al  Al2  1  0.78849079  0.09717103  0.81583308  1
  Al  Al3  1  0.90328954  0.20535579  0.57129707  1
  Al  Al4  1  0.43299556  0.10226077  0.31768714  1
  Al  Al5  1  0.55967248  0.20872193  0.07049518  1
  Al  Al6  1  0.10834730  0.09412293  0.82100692  1
  Al  Al7  1  0.21845353  0.20080666  0.57344833  1
  Al  Al8  1  0.10923030  0.41889733  0.32347715  1
  Al  Al9  1  0.78432462  0.41989791  0.82481738  1
  Al  Al10  1  0.89482884  0.52562099  0.57372678  1
  Al  Al11  1  0.44623737  0.42769433  0.31730736  1
  Al  Al12  1  0.55765280  0.54305359  0.07227644  1
  Al  Al13  1  0.10461238  0.42224201  0.82509301  1
  Al  Al14  1  0.77861574  0.43061664  0.32243234  1
  Al  Al15  1  0.88345380  0.53550709  0.07392828  1
  Al  Al16  1  0.44494818  0.43279783  0.83115893  1
  Al  Al17  1  0.12299407  0.76186189  0.32340291  1
  Al  Al18  1  0.23226530  0.87202821  0.07287104  1
  Al  Al19  1  0.89937565  0.87133330  0.57303433  1
  Al  Al20  1  0.43835590  0.76246068  0.32153144  1
  Al  Al21  1  0.55215495  0.86563731  0.07949370  1
  Al  Al22  1  0.11298985  0.76771231  0.82339187  1
  Al  Al23  1  0.22043231  0.87915095  0.57560247  1
  Al  Al24  1  0.43759878  0.76392999  0.82585512  1
  Al  Al25  1  0.53782538  0.88141919  0.56949364  1
  Sc  Sc26  1  0.77437763  0.10168722  0.34560518  1
  Sc  Sc27  1  0.89571789  0.20620178  0.08592874  1
  Sc  Sc28  1  0.43545622  0.09609767  0.84653725  1
  Sc  Sc29  1  0.54973686  0.20266303  0.59033124  1
  Sc  Sc30  1  0.22191038  0.53513212  0.08736916  1
  Sc  Sc31  1  0.21441062  0.54134043  0.57983666  1
  Sc  Sc32  1  0.55915358  0.54295827  0.58497943  1
  Sc  Sc33  1  0.77662386  0.75878006  0.82601600  1
  Sc  Sc34  1  0.77492212  0.75701563  0.34326863  1
  Sc  Sc35  1  0.88978335  0.87401773  0.08326480  1
  N  N36  1  0.22299998  0.20482941  0.37944065  1
  N  N37  1  0.13723098  0.07897163  0.13700014  1
  N  N38  1  0.89260337  0.20251214  0.87033845  1
  N  N39  1  0.79703386  0.09068350  0.61397329  1
  N  N40  1  0.52919391  0.21713502  0.37630669  1
  N  N41  1  0.44207275  0.09983037  0.11570146  1
  N  N42  1  0.19709441  0.21320530  0.88657977  1
  N  N43  1  0.11325607  0.09337405  0.62738783  1
  N  N44  1  0.90538376  0.21396519  0.37367161  1
  N  N45  1  0.76141649  0.10580600  0.13459294  1
  N  N46  1  0.57059250  0.21133908  0.87139796  1
  N  N47  1  0.42785259  0.08758689  0.63311994  1
  N  N48  1  0.22325638  0.53626457  0.35560570  1
  N  N49  1  0.09567418  0.41686868  0.13295682  1
  N  N50  1  0.89411965  0.52182728  0.88171162  1
  N  N51  1  0.79736213  0.41550517  0.63339241  1
  N  N52  1  0.55622497  0.53831570  0.37003674  1
  N  N53  1  0.46343317  0.42185247  0.12273599  1
  N  N54  1  0.21641348  0.53952114  0.86624489  1
  N  N55  1  0.10354695  0.41418598  0.63285454  1
  N  N56  1  0.89981970  0.51737829  0.38409695  1
  N  N57  1  0.76606419  0.44619083  0.13134987  1
  N  N58  1  0.55741535  0.54078446  0.87341437  1
  N  N59  1  0.44043366  0.43355099  0.64207562  1
  N  N60  1  0.22623219  0.87048167  0.38340704  1
  N  N61  1  0.12563562  0.77237745  0.13324234  1
  N  N62  1  0.89652846  0.88271102  0.86772130  1
  N  N63  1  0.77418492  0.76227068  0.60342499  1
  N  N64  1  0.52825634  0.88699999  0.37576388  1
  N  N65  1  0.44425486  0.75865811  0.12935614  1
  N  N66  1  0.22216059  0.87387707  0.87943449  1
  N  N67  1  0.10752336  0.77967255  0.63182283  1
  N  N68  1  0.91356382  0.85912449  0.37862382  1
  N  N69  1  0.76958344  0.75231836  0.12131793  1
  N  N70  1  0.54636220  0.85911426  0.88948494  1
  N  N71  1  0.43158804  0.78136400  0.63447670  1
