# generated using pymatgen
data_MgGeN2
_symmetry_space_group_name_H-M   'P 1'
_cell_length_a   5.58686817
_cell_length_b   6.75173887
_cell_length_c   5.21878403
_cell_angle_alpha   90.13893521
_cell_angle_beta   89.90207998
_cell_angle_gamma   90.09084394
_symmetry_Int_Tables_number   1
_chemical_formula_structural   MgGeN2
_chemical_formula_sum   'Mg4 Ge4 N8'
_cell_volume   196.85703133
_cell_formula_units_Z   4
loop_
 _symmetry_equiv_pos_site_id
 _symmetry_equiv_pos_as_xyz
  1  'x, y, z'
loop_
 _atom_site_type_symbol
 _atom_site_label
 _atom_site_symmetry_multiplicity
 _atom_site_fract_x
 _atom_site_fract_y
 _atom_site_fract_z
 _atom_site_occupancy
  Mg  Mg0  1  -0.42770326  0.11100784  -0.11501408  1
  Mg  Mg1  1  -0.91055706  0.36995671  -0.10665460  1
  Mg  Mg2  1  -0.57240252  0.86392468  -0.61514825  1
  Mg  Mg3  1  -0.08858573  0.60503491  -0.60370578  1
  Ge  Ge4  1  -0.93105525  0.86303536  -0.99949688  1
  Ge  Ge5  1  -0.06932271  0.11189603  -0.49932856  1
  Ge  Ge6  1  -0.42766246  0.61300162  -0.12908518  1
  Ge  Ge7  1  -0.57226617  0.36203014  -0.62934312  1
  N  N8  1  -0.05802828  0.08890149  -0.13697072  1
  N  N9  1  -0.94228000  0.88585873  -0.63732815  1
  N  N10  1  -0.59322906  0.84285611  -0.03208898  1
  N  N11  1  -0.10183776  0.62498064  -0.03890503  1
  N  N12  1  -0.40683295  0.13245832  -0.53225210  1
  N  N13  1  -0.89782114  0.34982574  -0.53688411  1
  N  N14  1  -0.55869450  0.38197389  -0.98897443  1
  N  N15  1  -0.44170780  0.59325981  -0.48890345  1
