# generated using pymatgen
data_MgGeN2
_symmetry_space_group_name_H-M   'P 1'
_cell_length_a   5.56907387
_cell_length_b   6.70737998
_cell_length_c   5.21874899
_cell_angle_alpha   89.37324511
_cell_angle_beta   89.71014843
_cell_angle_gamma   90.02378615
_symmetry_Int_Tables_number   1
_chemical_formula_structural   MgGeN2
_chemical_formula_sum   'Mg4 Ge4 N8'
_cell_volume   194.92642039
_cell_formula_units_Z   4
loop_
 _symmetry_equiv_pos_site_id
 _symmetry_equiv_pos_as_xyz
  1  'x, y, z'
loop_
 _atom_site_type_symbol
 _atom_site_label
 _atom_site_symmetry_multiplicity
 _atom_site_fract_x
 _atom_site_fract_y
 _atom_site_fract_z
 _atom_site_occupancy
  Mg  Mg0  1  -0.41328243  0.10831160  -0.02262206  1
  Mg  Mg1  1  -0.92037552  0.36580217  -0.02265912  1
  Mg  Mg2  1  -0.58702423  0.86207399  -0.50784258  1
  Mg  Mg3  1  -0.08436106  0.61321235  -0.50811160  1
  Ge  Ge4  1  -0.92443401  0.86234910  -0.00431147  1
  Ge  Ge5  1  -0.07258206  0.11145307  -0.50592458  1
  Ge  Ge6  1  -0.42567134  0.61492465  -0.00346658  1
  Ge  Ge7  1  -0.57497958  0.35777810  -0.54120776  1
  N  N8  1  -0.05829001  0.09382287  -0.14679012  1
  N  N9  1  -0.93789342  0.88135503  -0.64400986  1
  N  N10  1  -0.59953591  0.84516573  -0.10567874  1
  N  N11  1  -0.09944887  0.63512155  -0.10579109  1
  N  N12  1  -0.39863815  0.12465964  -0.60848665  1
  N  N13  1  -0.90655158  0.34600236  -0.60943700  1
  N  N14  1  -0.56110606  0.37904536  -0.11535051  1
  N  N15  1  -0.43581240  0.59892446  -0.63839370  1
