# generated using pymatgen
data_MgGeN2
_symmetry_space_group_name_H-M   'P 1'
_cell_length_a   5.58626825
_cell_length_b   6.75957578
_cell_length_c   5.21873945
_cell_angle_alpha   90.03409851
_cell_angle_beta   90.05829016
_cell_angle_gamma   89.88910826
_symmetry_Int_Tables_number   1
_chemical_formula_structural   MgGeN2
_chemical_formula_sum   'Mg4 Ge4 N8'
_cell_volume   197.06328936
_cell_formula_units_Z   4
loop_
 _symmetry_equiv_pos_site_id
 _symmetry_equiv_pos_as_xyz
  1  'x, y, z'
loop_
 _atom_site_type_symbol
 _atom_site_label
 _atom_site_symmetry_multiplicity
 _atom_site_fract_x
 _atom_site_fract_y
 _atom_site_fract_z
 _atom_site_occupancy
  Mg  Mg0  1  -0.41179381  0.10687593  -0.03902559  1
  Mg  Mg1  1  -0.92777034  0.36410913  -0.01998404  1
  Mg  Mg2  1  -0.58503190  0.86728805  -0.55670300  1
  Mg  Mg3  1  -0.07247306  0.61077751  -0.51905716  1
  Ge  Ge4  1  -0.92921279  0.86150257  -0.00624730  1
  Ge  Ge5  1  -0.07151212  0.11318015  -0.50594513  1
  Ge  Ge6  1  -0.43197954  0.61286361  -0.13615588  1
  Ge  Ge7  1  -0.56914980  0.36307325  -0.63651192  1
  N  N8  1  -0.05721834  0.09326580  -0.14630816  1
  N  N9  1  -0.94435606  0.88151510  -0.64592298  1
  N  N10  1  -0.59979143  0.84845409  -0.08033451  1
  N  N11  1  -0.09366664  0.63198875  -0.10382292  1
  N  N12  1  -0.39810188  0.12655792  -0.59373479  1
  N  N13  1  -0.90681064  0.34278581  -0.60351695  1
  N  N14  1  -0.55760505  0.38607758  -0.99884804  1
  N  N15  1  -0.44351323  0.58968678  -0.49796505  1
