# generated using pymatgen
data_MgGeN2
_symmetry_space_group_name_H-M   'P 1'
_cell_length_a   5.21874158
_cell_length_b   5.58638609
_cell_length_c   6.75280009
_cell_angle_alpha   90.09829774
_cell_angle_beta   89.84155100
_cell_angle_gamma   90.11097917
_symmetry_Int_Tables_number   1
_chemical_formula_structural   MgGeN2
_chemical_formula_sum   'Mg4 Ge4 N8'
_cell_volume   196.86908468
_cell_formula_units_Z   4
loop_
 _symmetry_equiv_pos_site_id
 _symmetry_equiv_pos_as_xyz
  1  'x, y, z'
loop_
 _atom_site_type_symbol
 _atom_site_label
 _atom_site_symmetry_multiplicity
 _atom_site_fract_x
 _atom_site_fract_y
 _atom_site_fract_z
 _atom_site_occupancy
  Mg  Mg0  1  0.03017244  0.41064593  0.10520574  1
  Mg  Mg1  1  0.02113385  0.92772341  0.36402230  1
  Mg  Mg2  1  0.53365829  0.58836660  0.86979871  1
  Mg  Mg3  1  0.52098779  0.07239248  0.61105250  1
  Ge  Ge4  1  0.00717445  0.92773180  0.86198833  1
  Ge  Ge5  1  0.50687151  0.07219522  0.11297343  1
  Ge  Ge6  1  0.13668678  0.43111790  0.61202046  1
  Ge  Ge7  1  0.63686961  0.56931719  0.36306755  1
  N  N8  1  0.14723517  0.05860361  0.09305281  1
  N  N9  1  0.64732025  0.94186706  0.88168146  1
  N  N10  1  0.09674104  0.60175029  0.84999638  1
  N  N11  1  0.10416064  0.09322808  0.63213190  1
  N  N12  1  0.59912685  0.39784816  0.12522525  1
  N  N13  1  0.60396479  0.90684259  0.34250527  1
  N  N14  1  0.99919510  0.55799252  0.38617439  1
  N  N15  1  0.49878488  0.44236379  0.58910555  1
