# generated using pymatgen
data_MgGeN2
_symmetry_space_group_name_H-M   'P 1'
_cell_length_a   5.58487764
_cell_length_b   6.76106343
_cell_length_c   5.21877164
_cell_angle_alpha   90.06245889
_cell_angle_beta   89.91956399
_cell_angle_gamma   90.12875926
_symmetry_Int_Tables_number   1
_chemical_formula_structural   MgGeN2
_chemical_formula_sum   'Mg4 Ge4 N8'
_cell_volume   197.05850573
_cell_formula_units_Z   4
loop_
 _symmetry_equiv_pos_site_id
 _symmetry_equiv_pos_as_xyz
  1  'x, y, z'
loop_
 _atom_site_type_symbol
 _atom_site_label
 _atom_site_symmetry_multiplicity
 _atom_site_fract_x
 _atom_site_fract_y
 _atom_site_fract_z
 _atom_site_occupancy
  Mg  Mg0  1  -0.42761949  0.11073991  -0.11715119  1
  Mg  Mg1  1  -0.91304226  0.36682323  -0.08737329  1
  Mg  Mg2  1  -0.57263019  0.86419070  -0.61852820  1
  Mg  Mg3  1  -0.08144400  0.61011849  -0.55225127  1
  Ge  Ge4  1  -0.93265460  0.86132071  -0.00051793  1
  Ge  Ge5  1  -0.06917968  0.11196321  -0.50036166  1
  Ge  Ge6  1  -0.43064813  0.61377949  -0.13093012  1
  Ge  Ge7  1  -0.57101813  0.36162095  -0.63103389  1
  N  N8  1  -0.05684183  0.08899758  -0.13807837  1
  N  N9  1  -0.94511426  0.88421077  -0.63968268  1
  N  N10  1  -0.59373926  0.84318987  -0.03241954  1
  N  N11  1  -0.09735349  0.62847470  -0.07696780  1
  N  N12  1  -0.40701558  0.13200316  -0.53292646  1
  N  N13  1  -0.89909176  0.34740759  -0.54962911  1
  N  N14  1  -0.55590623  0.38160392  -0.99069449  1
  N  N15  1  -0.44668776  0.59355775  -0.49153743  1
