# generated using pymatgen
data_MgGeN2
_symmetry_space_group_name_H-M   'P 1'
_cell_length_a   5.21880756
_cell_length_b   5.59386740
_cell_length_c   6.75549799
_cell_angle_alpha   90.01832435
_cell_angle_beta   90.76480123
_cell_angle_gamma   89.64430907
_symmetry_Int_Tables_number   1
_chemical_formula_structural   MgGeN2
_chemical_formula_sum   'Mg4 Ge4 N8'
_cell_volume   197.19402280
_cell_formula_units_Z   4
loop_
 _symmetry_equiv_pos_site_id
 _symmetry_equiv_pos_as_xyz
  1  'x, y, z'
loop_
 _atom_site_type_symbol
 _atom_site_label
 _atom_site_symmetry_multiplicity
 _atom_site_fract_x
 _atom_site_fract_y
 _atom_site_fract_z
 _atom_site_occupancy
  Mg  Mg0  1  0.02976405  0.41034547  0.10372747  1
  Mg  Mg1  1  0.02578290  0.92822071  0.36288426  1
  Mg  Mg2  1  0.51362256  0.58814463  0.86477569  1
  Mg  Mg3  1  0.51363398  0.07980637  0.61099257  1
  Ge  Ge4  1  0.00281470  0.92645525  0.86315302  1
  Ge  Ge5  1  0.50853310  0.07332294  0.11211390  1
  Ge  Ge6  1  0.02268514  0.42249368  0.62245494  1
  Ge  Ge7  1  0.64186361  0.57206817  0.35906367  1
  N  N8  1  0.14796921  0.05879901  0.09166425  1
  N  N9  1  0.64462574  0.93870785  0.88201129  1
  N  N10  1  0.10600479  0.60256534  0.84733760  1
  N  N11  1  0.10516918  0.09550970  0.63415391  1
  N  N12  1  0.60205640  0.39824876  0.12235836  1
  N  N13  1  0.60473975  0.90852977  0.34396999  1
  N  N14  1  0.02217741  0.56296243  0.37736235  1
  N  N15  1  0.59864089  0.43380656  0.60197877  1
