# generated using pymatgen
data_MgGeN2
_symmetry_space_group_name_H-M   'P 1'
_cell_length_a   5.54524388
_cell_length_b   6.65155474
_cell_length_c   5.21867229
_cell_angle_alpha   89.99997432
_cell_angle_beta   89.99999496
_cell_angle_gamma   89.99999328
_symmetry_Int_Tables_number   1
_chemical_formula_structural   MgGeN2
_chemical_formula_sum   'Mg4 Ge4 N8'
_cell_volume   192.48808252
_cell_formula_units_Z   4
loop_
 _symmetry_equiv_pos_site_id
 _symmetry_equiv_pos_as_xyz
  1  'x, y, z'
loop_
 _atom_site_type_symbol
 _atom_site_label
 _atom_site_symmetry_multiplicity
 _atom_site_fract_x
 _atom_site_fract_y
 _atom_site_fract_z
 _atom_site_occupancy
  Mg  Mg0  1  -0.41506263  0.11096250  -0.00716987  1
  Mg  Mg1  1  -0.91506236  0.36403867  -0.00716975  1
  Mg  Mg2  1  -0.58493756  0.86403824  -0.50716983  1
  Mg  Mg3  1  -0.08493728  0.61096255  -0.50716996  1
  Ge  Ge4  1  -0.92621683  0.86174322  -0.00011652  1
  Ge  Ge5  1  -0.07378437  0.11325553  -0.50011636  1
  Ge  Ge6  1  -0.42621583  0.61325542  -0.00011608  1
  Ge  Ge7  1  -0.57378314  0.36174288  -0.50011640  1
  N  N8  1  -0.06069129  0.09486227  -0.13998036  1
  N  N9  1  -0.93930830  0.88013824  -0.63998085  1
  N  N10  1  -0.60000978  0.84450015  -0.10273211  1
  N  N11  1  -0.10001010  0.63050029  -0.10273289  1
  N  N12  1  -0.39999009  0.13049994  -0.60273259  1
  N  N13  1  -0.89999023  0.34450016  -0.60273222  1
  N  N14  1  -0.56069172  0.38013819  -0.13998061  1
  N  N15  1  -0.43930848  0.59486175  -0.63998022  1
