# generated using pymatgen
data_MgGeN2
_symmetry_space_group_name_H-M   'P 1'
_cell_length_a   5.58827755
_cell_length_b   6.75186222
_cell_length_c   5.21883105
_cell_angle_alpha   89.15245649
_cell_angle_beta   89.59713179
_cell_angle_gamma   89.94513367
_symmetry_Int_Tables_number   1
_chemical_formula_structural   MgGeN2
_chemical_formula_sum   'Mg4 Ge4 N8'
_cell_volume   196.88669347
_cell_formula_units_Z   4
loop_
 _symmetry_equiv_pos_site_id
 _symmetry_equiv_pos_as_xyz
  1  'x, y, z'
loop_
 _atom_site_type_symbol
 _atom_site_label
 _atom_site_symmetry_multiplicity
 _atom_site_fract_x
 _atom_site_fract_y
 _atom_site_fract_z
 _atom_site_occupancy
  Mg  Mg0  1  -0.41128193  0.10336666  -0.03492821  1
  Mg  Mg1  1  -0.92844511  0.36401700  -0.02905878  1
  Mg  Mg2  1  -0.58769350  0.86362739  -0.50881238  1
  Mg  Mg3  1  -0.08181920  0.61232507  -0.50926361  1
  Ge  Ge4  1  -0.92513511  0.86222660  -0.00333149  1
  Ge  Ge5  1  -0.07250633  0.11168665  -0.50817709  1
  Ge  Ge6  1  -0.42092653  0.62423302  -0.99732580  1
  Ge  Ge7  1  -0.57422893  0.35592207  -0.64653724  1
  N  N8  1  -0.05783924  0.09153590  -0.14795441  1
  N  N9  1  -0.93774170  0.88174409  -0.64438633  1
  N  N10  1  -0.60145583  0.84471494  -0.10640365  1
  N  N11  1  -0.09821776  0.63526695  -0.10526993  1
  N  N12  1  -0.39826757  0.12186324  -0.59999493  1
  N  N13  1  -0.90963383  0.34544104  -0.60345053  1
  N  N14  1  -0.56272929  0.37713324  -0.02409394  1
  N  N15  1  -0.43206478  0.60489818  -0.62109508  1
