# generated using pymatgen
data_MgGeN2
_symmetry_space_group_name_H-M   'P 1'
_cell_length_a   5.58097159
_cell_length_b   6.72721627
_cell_length_c   5.21879400
_cell_angle_alpha   89.25916290
_cell_angle_beta   89.65082280
_cell_angle_gamma   89.99950203
_symmetry_Int_Tables_number   1
_chemical_formula_structural   MgGeN2
_chemical_formula_sum   'Mg4 Ge4 N8'
_cell_volume   195.91648662
_cell_formula_units_Z   4
loop_
 _symmetry_equiv_pos_site_id
 _symmetry_equiv_pos_as_xyz
  1  'x, y, z'
loop_
 _atom_site_type_symbol
 _atom_site_label
 _atom_site_symmetry_multiplicity
 _atom_site_fract_x
 _atom_site_fract_y
 _atom_site_fract_z
 _atom_site_occupancy
  Mg  Mg0  1  -0.41135583  0.10521426  -0.02869879  1
  Mg  Mg1  1  -0.92491779  0.36591468  -0.02723720  1
  Mg  Mg2  1  -0.58748641  0.86220402  -0.50619150  1
  Mg  Mg3  1  -0.08397087  0.61356722  -0.50694151  1
  Ge  Ge4  1  -0.92422924  0.86236995  -0.00345234  1
  Ge  Ge5  1  -0.07204373  0.11124916  -0.50556138  1
  Ge  Ge6  1  -0.42290069  0.62016061  -0.99911060  1
  Ge  Ge7  1  -0.57570982  0.35502179  -0.62568982  1
  N  N8  1  -0.05771039  0.09292663  -0.14655563  1
  N  N9  1  -0.93727789  0.88173585  -0.64361209  1
  N  N10  1  -0.60021407  0.84500986  -0.10538029  1
  N  N11  1  -0.09912200  0.63592509  -0.10528406  1
  N  N12  1  -0.39747535  0.12143250  -0.60333945  1
  N  N13  1  -0.91038525  0.34643878  -0.60509099  1
  N  N14  1  -0.56249175  0.37705922  -0.04912391  1
  N  N15  1  -0.43269557  0.60377241  -0.62881387  1
