# generated using pymatgen
data_MgGeN2
_symmetry_space_group_name_H-M   'P 1'
_cell_length_a   5.58822223
_cell_length_b   6.75170651
_cell_length_c   5.21893627
_cell_angle_alpha   89.15106183
_cell_angle_beta   90.40457778
_cell_angle_gamma   90.05525928
_symmetry_Int_Tables_number   1
_chemical_formula_structural   MgGeN2
_chemical_formula_sum   'Mg4 Ge4 N8'
_cell_volume   196.88406015
_cell_formula_units_Z   4
loop_
 _symmetry_equiv_pos_site_id
 _symmetry_equiv_pos_as_xyz
  1  'x, y, z'
loop_
 _atom_site_type_symbol
 _atom_site_label
 _atom_site_symmetry_multiplicity
 _atom_site_fract_x
 _atom_site_fract_y
 _atom_site_fract_z
 _atom_site_occupancy
  Mg  Mg0  1  -0.42843516  0.11095269  -0.10716108  1
  Mg  Mg1  1  -0.91128114  0.37163585  -0.10126142  1
  Mg  Mg2  1  -0.58185622  0.86265183  -0.62704286  1
  Mg  Mg3  1  -0.08769644  0.61140477  -0.62749845  1
  Ge  Ge4  1  -0.92091358  0.85076410  -0.13902876  1
  Ge  Ge5  1  -0.07425334  0.11911292  -0.48969260  1
  Ge  Ge6  1  -0.42511673  0.61277074  -0.13293131  1
  Ge  Ge7  1  -0.57249992  0.36331233  -0.62808130  1
  N  N8  1  -0.06271739  0.09786872  -0.11213533  1
  N  N9  1  -0.93207048  0.87011590  -0.51510927  1
  N  N10  1  -0.59823298  0.83970743  -0.03099324  1
  N  N11  1  -0.10144205  0.63030591  -0.02986625  1
  N  N12  1  -0.40965614  0.12953443  -0.53280843  1
  N  N13  1  -0.89827674  0.35315841  -0.53629515  1
  N  N14  1  -0.55781162  0.38345085  -0.98830310  1
  N  N15  1  -0.43772670  0.59325515  -0.49187487  1
