# generated using pymatgen
data_MgGeN2
_symmetry_space_group_name_H-M   'P 1'
_cell_length_a   5.21877164
_cell_length_b   5.58487764
_cell_length_c   6.76106343
_cell_angle_alpha   89.87124074
_cell_angle_beta   89.93754111
_cell_angle_gamma   89.91956399
_symmetry_Int_Tables_number   1
_chemical_formula_structural   MgGeN2
_chemical_formula_sum   'Mg4 Ge4 N8'
_cell_volume   197.05850573
_cell_formula_units_Z   4
loop_
 _symmetry_equiv_pos_site_id
 _symmetry_equiv_pos_as_xyz
  1  'x, y, z'
loop_
 _atom_site_type_symbol
 _atom_site_label
 _atom_site_symmetry_multiplicity
 _atom_site_fract_x
 _atom_site_fract_y
 _atom_site_fract_z
 _atom_site_occupancy
  Mg  Mg0  1  0.11715119  0.42761949  0.11073991  1
  Mg  Mg1  1  0.08737329  0.91304226  0.36682323  1
  Mg  Mg2  1  0.61852820  0.57263019  0.86419070  1
  Mg  Mg3  1  0.55225127  0.08144400  0.61011849  1
  Ge  Ge4  1  0.00051793  0.93265460  0.86132071  1
  Ge  Ge5  1  0.50036166  0.06917968  0.11196321  1
  Ge  Ge6  1  0.13093012  0.43064813  0.61377949  1
  Ge  Ge7  1  0.63103389  0.57101813  0.36162095  1
  N  N8  1  0.13807837  0.05684183  0.08899758  1
  N  N9  1  0.63968268  0.94511426  0.88421077  1
  N  N10  1  0.03241954  0.59373926  0.84318987  1
  N  N11  1  0.07696780  0.09735349  0.62847470  1
  N  N12  1  0.53292646  0.40701558  0.13200316  1
  N  N13  1  0.54962911  0.89909176  0.34740759  1
  N  N14  1  0.99069449  0.55590623  0.38160392  1
  N  N15  1  0.49153743  0.44668776  0.59355775  1
