# generated using pymatgen
data_MgGeN2
_symmetry_space_group_name_H-M   'P 1'
_cell_length_a   5.56905166
_cell_length_b   6.70732801
_cell_length_c   5.21889270
_cell_angle_alpha   89.37355148
_cell_angle_beta   90.28969850
_cell_angle_gamma   89.97613465
_symmetry_Int_Tables_number   1
_chemical_formula_structural   MgGeN2
_chemical_formula_sum   'Mg4 Ge4 N8'
_cell_volume   194.92951445
_cell_formula_units_Z   4
loop_
 _symmetry_equiv_pos_site_id
 _symmetry_equiv_pos_as_xyz
  1  'x, y, z'
loop_
 _atom_site_type_symbol
 _atom_site_label
 _atom_site_symmetry_multiplicity
 _atom_site_fract_x
 _atom_site_fract_y
 _atom_site_fract_z
 _atom_site_occupancy
  Mg  Mg0  1  -0.42037709  0.10920027  -0.11361377  1
  Mg  Mg1  1  -0.91328133  0.36668979  -0.11365091  1
  Mg  Mg2  1  -0.58436068  0.86178614  -0.62815156  1
  Mg  Mg3  1  -0.08702456  0.61292494  -0.62842025  1
  Ge  Ge4  1  -0.92567222  0.86007590  -0.13278986  1
  Ge  Ge5  1  -0.07497752  0.11721813  -0.59506863  1
  Ge  Ge6  1  -0.42443553  0.61265240  -0.13194067  1
  Ge  Ge7  1  -0.57258056  0.36354843  -0.63033416  1
  N  N8  1  -0.06110851  0.09595742  -0.02091043  1
  N  N9  1  -0.93581094  0.87607373  -0.49785904  1
  N  N10  1  -0.59944966  0.83988164  -0.03046475  1
  N  N11  1  -0.09953625  0.62983464  -0.03057623  1
  N  N12  1  -0.40654983  0.12899685  -0.52682713  1
  N  N13  1  -0.89863789  0.35033873  -0.52777572  1
  N  N14  1  -0.55829195  0.38117830  -0.98946251  1
  N  N15  1  -0.43789211  0.59364474  -0.49223781  1
