# generated using pymatgen
data_MgGeN2
_symmetry_space_group_name_H-M   'P 1'
_cell_length_a   5.59471708
_cell_length_b   6.74681744
_cell_length_c   5.21876793
_cell_angle_alpha   89.51731794
_cell_angle_beta   89.77260445
_cell_angle_gamma   90.04667375
_symmetry_Int_Tables_number   1
_chemical_formula_structural   MgGeN2
_chemical_formula_sum   'Mg4 Ge4 N8'
_cell_volume   196.98179268
_cell_formula_units_Z   4
loop_
 _symmetry_equiv_pos_site_id
 _symmetry_equiv_pos_as_xyz
  1  'x, y, z'
loop_
 _atom_site_type_symbol
 _atom_site_label
 _atom_site_symmetry_multiplicity
 _atom_site_fract_x
 _atom_site_fract_y
 _atom_site_fract_z
 _atom_site_occupancy
  Mg  Mg0  1  -0.41014995  0.10346120  -0.02645179  1
  Mg  Mg1  1  -0.92805613  0.36321392  -0.02265272  1
  Mg  Mg2  1  -0.59029037  0.87022645  -0.52274819  1
  Mg  Mg3  1  -0.07317993  0.61088565  -0.52035819  1
  Ge  Ge4  1  -0.92735081  0.86236483  -0.00492846  1
  Ge  Ge5  1  -0.07312349  0.11281929  -0.50757331  1
  Ge  Ge6  1  -0.42966100  0.61264010  -0.13343396  1
  Ge  Ge7  1  -0.56898126  0.36375291  -0.63857402  1
  N  N8  1  -0.05932492  0.09250620  -0.14755460  1
  N  N9  1  -0.93989211  0.88248045  -0.64587658  1
  N  N10  1  -0.60273227  0.84980651  -0.10106930  1
  N  N11  1  -0.09326500  0.63281806  -0.10278660  1
  N  N12  1  -0.39768617  0.12455466  -0.60135052  1
  N  N13  1  -0.90680362  0.34339714  -0.60460262  1
  N  N14  1  -0.55924921  0.38381327  -0.00361225  1
  N  N15  1  -0.44024040  0.59126140  -0.50651029  1
