# generated using pymatgen
data_MgGeN2
_symmetry_space_group_name_H-M   'P 1'
_cell_length_a   5.21890346
_cell_length_b   5.57750403
_cell_length_c   6.72132599
_cell_angle_alpha   90.00935916
_cell_angle_beta   90.70780262
_cell_angle_gamma   90.33156089
_symmetry_Int_Tables_number   1
_chemical_formula_structural   MgGeN2
_chemical_formula_sum   'Mg4 Ge4 N8'
_cell_volume   195.62920626
_cell_formula_units_Z   4
loop_
 _symmetry_equiv_pos_site_id
 _symmetry_equiv_pos_as_xyz
  1  'x, y, z'
loop_
 _atom_site_type_symbol
 _atom_site_label
 _atom_site_symmetry_multiplicity
 _atom_site_fract_x
 _atom_site_fract_y
 _atom_site_fract_z
 _atom_site_occupancy
  Mg  Mg0  1  0.11038925  0.42282203  0.10891954  1
  Mg  Mg1  1  0.10960438  0.91222823  0.36817747  1
  Mg  Mg2  1  0.62937141  0.58412141  0.86139249  1
  Mg  Mg3  1  0.62991571  0.08753471  0.61300633  1
  Ge  Ge4  1  0.13504489  0.92424887  0.85728436  1
  Ge  Ge5  1  0.53850275  0.07582503  0.11957780  1
  Ge  Ge6  1  0.13227271  0.42413387  0.61272569  1
  Ge  Ge7  1  0.63115020  0.57201103  0.36404497  1
  N  N8  1  0.06469366  0.06181355  0.09689783  1
  N  N9  1  0.50449940  0.93350394  0.87256146  1
  N  N10  1  0.03102992  0.59912927  0.83914213  1
  N  N11  1  0.03106384  0.09980938  0.62956918  1
  N  N12  1  0.52945603  0.40981584  0.12868165  1
  N  N13  1  0.53085301  0.89752930  0.35299175  1
  N  N14  1  0.98968685  0.55792515  0.38171512  1
  N  N15  1  0.49254941  0.43753502  0.59331427  1
