# generated using pymatgen
data_MgGeN2
_symmetry_space_group_name_H-M   'P 1'
_cell_length_a   5.21875114
_cell_length_b   5.58012177
_cell_length_c   6.75842818
_cell_angle_alpha   90.12519390
_cell_angle_beta   89.93337450
_cell_angle_gamma   90.07504454
_symmetry_Int_Tables_number   1
_chemical_formula_structural   MgGeN2
_chemical_formula_sum   'Mg4 Ge4 N8'
_cell_volume   196.81321947
_cell_formula_units_Z   4
loop_
 _symmetry_equiv_pos_site_id
 _symmetry_equiv_pos_as_xyz
  1  'x, y, z'
loop_
 _atom_site_type_symbol
 _atom_site_label
 _atom_site_symmetry_multiplicity
 _atom_site_fract_x
 _atom_site_fract_y
 _atom_site_fract_z
 _atom_site_occupancy
  Mg  Mg0  1  0.07341145  0.41708748  0.10951834  1
  Mg  Mg1  1  0.01754925  0.92757017  0.36433983  1
  Mg  Mg2  1  0.60343765  0.57819635  0.86349492  1
  Mg  Mg3  1  0.51645881  0.07256685  0.61093558  1
  Ge  Ge4  1  0.00407256  0.93167402  0.86116518  1
  Ge  Ge5  1  0.50448825  0.06992407  0.11362263  1
  Ge  Ge6  1  0.13536435  0.43280356  0.61405589  1
  Ge  Ge7  1  0.63505367  0.56864796  0.36243584  1
  N  N8  1  0.14446978  0.05374930  0.09348566  1
  N  N9  1  0.64371030  0.94805250  0.88142031  1
  N  N10  1  0.04475518  0.59532701  0.84497851  1
  N  N11  1  0.10370521  0.09338712  0.63165211  1
  N  N12  1  0.56815661  0.40201648  0.12858151  1
  N  N13  1  0.60328173  0.90720735  0.34333059  1
  N  N14  1  0.99673282  0.55520233  0.38515516  1
  N  N15  1  0.49543581  0.44657409  0.59182996  1
