# generated using pymatgen
data_MgGeN2
_symmetry_space_group_name_H-M   'P 1'
_cell_length_a   5.58027926
_cell_length_b   6.75853510
_cell_length_c   5.21876613
_cell_angle_alpha   90.06748671
_cell_angle_beta   89.92399263
_cell_angle_gamma   90.12547202
_symmetry_Int_Tables_number   1
_chemical_formula_structural   MgGeN2
_chemical_formula_sum   'Mg4 Ge4 N8'
_cell_volume   196.82244329
_cell_formula_units_Z   4
loop_
 _symmetry_equiv_pos_site_id
 _symmetry_equiv_pos_as_xyz
  1  'x, y, z'
loop_
 _atom_site_type_symbol
 _atom_site_label
 _atom_site_symmetry_multiplicity
 _atom_site_fract_x
 _atom_site_fract_y
 _atom_site_fract_z
 _atom_site_occupancy
  Mg  Mg0  1  -0.42757360  0.11065882  -0.11866812  1
  Mg  Mg1  1  -0.91693051  0.36552268  -0.06377542  1
  Mg  Mg2  1  -0.57256854  0.86406486  -0.61977765  1
  Mg  Mg3  1  -0.07827064  0.61149126  -0.53315993  1
  Ge  Ge4  1  -0.93281242  0.86094633  -0.00087258  1
  Ge  Ge5  1  -0.06867049  0.11253562  -0.50117609  1
  Ge  Ge6  1  -0.43165610  0.61383909  -0.13215156  1
  Ge  Ge7  1  -0.56996374  0.36138568  -0.63174421  1
  N  N8  1  -0.05526426  0.08980411  -0.13946967  1
  N  N9  1  -0.94654168  0.88318690  -0.64079339  1
  N  N10  1  -0.59340576  0.84334504  -0.03255011  1
  N  N11  1  -0.09537185  0.63000127  -0.09127456  1
  N  N12  1  -0.40720129  0.13167624  -0.53298252  1
  N  N13  1  -0.90190953  0.34644814  -0.56740798  1
  N  N14  1  -0.55381651  0.38151626  -0.99175404  1
  N  N15  1  -0.44802971  0.59357972  -0.49252558  1
