# generated using pymatgen
data_MgGeN2
_symmetry_space_group_name_H-M   'P 1'
_cell_length_a   5.21883105
_cell_length_b   5.58827755
_cell_length_c   6.75186222
_cell_angle_alpha   90.05486633
_cell_angle_beta   90.84754351
_cell_angle_gamma   89.59713179
_symmetry_Int_Tables_number   1
_chemical_formula_structural   MgGeN2
_chemical_formula_sum   'Mg4 Ge4 N8'
_cell_volume   196.88669347
_cell_formula_units_Z   4
loop_
 _symmetry_equiv_pos_site_id
 _symmetry_equiv_pos_as_xyz
  1  'x, y, z'
loop_
 _atom_site_type_symbol
 _atom_site_label
 _atom_site_symmetry_multiplicity
 _atom_site_fract_x
 _atom_site_fract_y
 _atom_site_fract_z
 _atom_site_occupancy
  Mg  Mg0  1  0.03492821  0.41128193  0.10336666  1
  Mg  Mg1  1  0.02905878  0.92844511  0.36401700  1
  Mg  Mg2  1  0.50881238  0.58769350  0.86362739  1
  Mg  Mg3  1  0.50926361  0.08181920  0.61232507  1
  Ge  Ge4  1  0.00333149  0.92513511  0.86222660  1
  Ge  Ge5  1  0.50817709  0.07250633  0.11168665  1
  Ge  Ge6  1  0.99732580  0.42092653  0.62423302  1
  Ge  Ge7  1  0.64653724  0.57422893  0.35592207  1
  N  N8  1  0.14795441  0.05783924  0.09153590  1
  N  N9  1  0.64438633  0.93774170  0.88174409  1
  N  N10  1  0.10640365  0.60145583  0.84471494  1
  N  N11  1  0.10526993  0.09821776  0.63526695  1
  N  N12  1  0.59999493  0.39826757  0.12186324  1
  N  N13  1  0.60345053  0.90963383  0.34544104  1
  N  N14  1  0.02409394  0.56272929  0.37713324  1
  N  N15  1  0.62109508  0.43206478  0.60489818  1
