# generated using pymatgen
data_MgGeN2
_symmetry_space_group_name_H-M   'P 1'
_cell_length_a   5.21867229
_cell_length_b   5.54524388
_cell_length_c   6.65155474
_cell_angle_alpha   90.00000672
_cell_angle_beta   90.00002568
_cell_angle_gamma   89.99999496
_symmetry_Int_Tables_number   1
_chemical_formula_structural   MgGeN2
_chemical_formula_sum   'Mg4 Ge4 N8'
_cell_volume   192.48808252
_cell_formula_units_Z   4
loop_
 _symmetry_equiv_pos_site_id
 _symmetry_equiv_pos_as_xyz
  1  'x, y, z'
loop_
 _atom_site_type_symbol
 _atom_site_label
 _atom_site_symmetry_multiplicity
 _atom_site_fract_x
 _atom_site_fract_y
 _atom_site_fract_z
 _atom_site_occupancy
  Mg  Mg0  1  0.00716987  0.41506263  0.11096250  1
  Mg  Mg1  1  0.00716975  0.91506236  0.36403867  1
  Mg  Mg2  1  0.50716983  0.58493756  0.86403824  1
  Mg  Mg3  1  0.50716996  0.08493728  0.61096255  1
  Ge  Ge4  1  0.00011652  0.92621683  0.86174322  1
  Ge  Ge5  1  0.50011636  0.07378437  0.11325553  1
  Ge  Ge6  1  0.00011608  0.42621583  0.61325542  1
  Ge  Ge7  1  0.50011640  0.57378314  0.36174288  1
  N  N8  1  0.13998036  0.06069129  0.09486227  1
  N  N9  1  0.63998085  0.93930830  0.88013824  1
  N  N10  1  0.10273211  0.60000978  0.84450015  1
  N  N11  1  0.10273289  0.10001010  0.63050029  1
  N  N12  1  0.60273259  0.39999009  0.13049994  1
  N  N13  1  0.60273222  0.89999023  0.34450016  1
  N  N14  1  0.13998061  0.56069172  0.38013819  1
  N  N15  1  0.63998022  0.43930848  0.59486175  1
