# generated using pymatgen
data_MgGeN2
_symmetry_space_group_name_H-M   'P 1'
_cell_length_a   5.57189545
_cell_length_b   6.75197657
_cell_length_c   5.21875930
_cell_angle_alpha   90.05259403
_cell_angle_beta   89.94153423
_cell_angle_gamma   90.09709022
_symmetry_Int_Tables_number   1
_chemical_formula_structural   MgGeN2
_chemical_formula_sum   'Mg4 Ge4 N8'
_cell_volume   196.33608217
_cell_formula_units_Z   4
loop_
 _symmetry_equiv_pos_site_id
 _symmetry_equiv_pos_as_xyz
  1  'x, y, z'
loop_
 _atom_site_type_symbol
 _atom_site_label
 _atom_site_symmetry_multiplicity
 _atom_site_fract_x
 _atom_site_fract_y
 _atom_site_fract_z
 _atom_site_occupancy
  Mg  Mg0  1  -0.42777031  0.11079675  -0.12048408  1
  Mg  Mg1  1  -0.92217031  0.36437941  -0.03527706  1
  Mg  Mg2  1  -0.57230310  0.86394095  -0.62108007  1
  Mg  Mg3  1  -0.07529000  0.61170515  -0.52188623  1
  Ge  Ge4  1  -0.93270683  0.86096063  -0.00144695  1
  Ge  Ge5  1  -0.06802578  0.11334425  -0.50176529  1
  Ge  Ge6  1  -0.43215793  0.61376260  -0.13319023  1
  Ge  Ge7  1  -0.56864336  0.36128978  -0.63275444  1
  N  N8  1  -0.05325979  0.09136720  -0.14110891  1
  N  N9  1  -0.94774341  0.88248127  -0.64167134  1
  N  N10  1  -0.59280454  0.84357772  -0.03278306  1
  N  N11  1  -0.09360231  0.63057422  -0.09882454  1
  N  N12  1  -0.40753590  0.13137905  -0.53301661  1
  N  N13  1  -0.90533444  0.34536220  -0.58875913  1
  N  N14  1  -0.55196376  0.38151783  -0.99284574  1
  N  N15  1  -0.44867487  0.59356301  -0.49318976  1
