# generated using pymatgen
data_MgGeN2
_symmetry_space_group_name_H-M   'P 1'
_cell_length_a   5.58475779
_cell_length_b   6.76112614
_cell_length_c   5.21874674
_cell_angle_alpha   90.06173963
_cell_angle_beta   90.07961412
_cell_angle_gamma   89.87089246
_symmetry_Int_Tables_number   1
_chemical_formula_structural   MgGeN2
_chemical_formula_sum   'Mg4 Ge4 N8'
_cell_volume   197.05516863
_cell_formula_units_Z   4
loop_
 _symmetry_equiv_pos_site_id
 _symmetry_equiv_pos_as_xyz
  1  'x, y, z'
loop_
 _atom_site_type_symbol
 _atom_site_label
 _atom_site_symmetry_multiplicity
 _atom_site_fract_x
 _atom_site_fract_y
 _atom_site_fract_z
 _atom_site_occupancy
  Mg  Mg0  1  -0.41314717  0.10822511  -0.04951428  1
  Mg  Mg1  1  -0.92761493  0.36426459  -0.01906585  1
  Mg  Mg2  1  -0.58134157  0.86481565  -0.58472925  1
  Mg  Mg3  1  -0.07262999  0.61081070  -0.51769454  1
  Ge  Ge4  1  -0.93068823  0.86121720  -0.00529283  1
  Ge  Ge5  1  -0.07099066  0.11338753  -0.50520705  1
  Ge  Ge6  1  -0.43266104  0.61369929  -0.13572608  1
  Ge  Ge7  1  -0.56916445  0.36302756  -0.63586201  1
  N  N8  1  -0.05584110  0.09340211  -0.14553454  1
  N  N9  1  -0.94674399  0.88144159  -0.64468546  1
  N  N10  1  -0.59728957  0.84646693  -0.05875437  1
  N  N11  1  -0.09373087  0.63180783  -0.10383476  1
  N  N12  1  -0.39916522  0.12762011  -0.58617945  1
  N  N13  1  -0.90702081  0.34300682  -0.60333040  1
  N  N14  1  -0.55679734  0.38598928  -0.99813894  1
  N  N15  1  -0.44515971  0.59081973  -0.49653361  1
