# generated using pymatgen
data_Al11BN12
_symmetry_space_group_name_H-M   'P 1'
_cell_length_a   9.26373719
_cell_length_b   9.32000080
_cell_length_c   10.07506591
_cell_angle_alpha   89.55841063
_cell_angle_beta   90.34167981
_cell_angle_gamma   60.10236045
_symmetry_Int_Tables_number   1
_chemical_formula_structural   Al11BN12
_chemical_formula_sum   'Al33 B3 N36'
_cell_volume   754.02727094
_cell_formula_units_Z   3
loop_
 _symmetry_equiv_pos_site_id
 _symmetry_equiv_pos_as_xyz
  1  'x, y, z'
loop_
 _atom_site_type_symbol
 _atom_site_label
 _atom_site_symmetry_multiplicity
 _atom_site_fract_x
 _atom_site_fract_y
 _atom_site_fract_z
 _atom_site_occupancy
  Al  Al0  1  0.11356521  0.09196764  0.32152698  1
  Al  Al1  1  0.22073185  0.20566896  0.07133964  1
  Al  Al2  1  0.77999155  0.09954460  0.81534242  1
  Al  Al3  1  0.44707593  0.09308349  0.32378757  1
  Al  Al4  1  0.55739031  0.20397969  0.07356834  1
  Al  Al5  1  0.10916049  0.09443025  0.82183582  1
  Al  Al6  1  0.21735283  0.20670493  0.57141185  1
  Al  Al7  1  0.78261227  0.09169665  0.33220094  1
  Al  Al8  1  0.89034922  0.19948830  0.08247737  1
  Al  Al9  1  0.44408090  0.09144243  0.82218972  1
  Al  Al10  1  0.56308394  0.21025977  0.57466228  1
  Al  Al11  1  0.11979932  0.42217612  0.32147826  1
  Al  Al12  1  0.21912582  0.53990268  0.07218030  1
  Al  Al13  1  0.77630107  0.43285086  0.88949132  1
  Al  Al14  1  0.88878740  0.53641846  0.64323659  1
  Al  Al15  1  0.45030864  0.42630149  0.32304113  1
  Al  Al16  1  0.54316653  0.54908615  0.06989452  1
  Al  Al17  1  0.11999750  0.42308546  0.82338216  1
  Al  Al18  1  0.22094650  0.53703578  0.56857423  1
  Al  Al19  1  0.78662034  0.41927931  0.39675470  1
  Al  Al20  1  0.87789011  0.54284523  0.14349389  1
  Al  Al21  1  0.44172586  0.43493075  0.82298633  1
  Al  Al22  1  0.55149921  0.54197304  0.58385454  1
  Al  Al23  1  0.11693150  0.76025888  0.32300632  1
  Al  Al24  1  0.22401173  0.87037123  0.06537370  1
  Al  Al25  1  0.77434808  0.75689202  0.88576691  1
  Al  Al26  1  0.44536644  0.76012454  0.32604830  1
  Al  Al27  1  0.54306966  0.87453918  0.07000723  1
  Al  Al28  1  0.10583198  0.76283741  0.81563668  1
  Al  Al29  1  0.20632642  0.88190988  0.57545082  1
  Al  Al30  1  0.78021633  0.75539828  0.39096604  1
  Al  Al31  1  0.88958394  0.87671010  0.07007526  1
  Al  Al32  1  0.55358542  0.87697572  0.58245645  1
  B  B33  1  0.88549764  0.20995106  0.59813653  1
  B  B34  1  0.91968537  0.82502249  0.55175388  1
  B  B35  1  0.43959004  0.76374036  0.81823006  1
  N  N36  1  0.22459611  0.20326844  0.38332398  1
  N  N37  1  0.11715001  0.08812743  0.13094827  1
  N  N38  1  0.89317204  0.19911013  0.88985888  1
  N  N39  1  0.78454093  0.13027312  0.63100297  1
  N  N40  1  0.55780013  0.20424676  0.38516434  1
  N  N41  1  0.44475431  0.09290007  0.13286176  1
  N  N42  1  0.22243470  0.20384749  0.88226825  1
  N  N43  1  0.08170356  0.11138661  0.63000024  1
  N  N44  1  0.89562567  0.19953977  0.36972849  1
  N  N45  1  0.77757971  0.08853559  0.14060626  1
  N  N46  1  0.55594616  0.20677101  0.88246541  1
  N  N47  1  0.44665627  0.09737488  0.63412890  1
  N  N48  1  0.22530867  0.53726293  0.38072970  1
  N  N49  1  0.11365388  0.42474434  0.13080579  1
  N  N50  1  0.88594490  0.54045613  0.83067598  1
  N  N51  1  0.79365679  0.40711597  0.59203472  1
  N  N52  1  0.55180585  0.54271994  0.39111690  1
  N  N53  1  0.44455423  0.42758982  0.13219322  1
  N  N54  1  0.21898175  0.54305729  0.88282085  1
  N  N55  1  0.11977570  0.42235345  0.63194105  1
  N  N56  1  0.88491453  0.54017914  0.33450546  1
  N  N57  1  0.77373276  0.43135515  0.08321745  1
  N  N58  1  0.53558893  0.56965662  0.87417121  1
  N  N59  1  0.43847637  0.43340613  0.63537178  1
  N  N60  1  0.22520359  0.87130431  0.38794164  1
  N  N61  1  0.11089259  0.76184011  0.13312444  1
  N  N62  1  0.88769146  0.87885290  0.87894572  1
  N  N63  1  0.79902651  0.76132515  0.58684243  1
  N  N64  1  0.55000054  0.87428603  0.38931117  1
  N  N65  1  0.44070411  0.76186272  0.13804361  1
  N  N66  1  0.24100548  0.86068862  0.86912839  1
  N  N67  1  0.08628627  0.76669726  0.62193983  1
  N  N68  1  0.90183369  0.86740499  0.40168963  1
  N  N69  1  0.77514582  0.75956618  0.08225033  1
  N  N70  1  0.53490624  0.86271782  0.87400537  1
  N  N71  1  0.43994397  0.76596665  0.65318477  1
