# generated using pymatgen
data_Al11BN12
_symmetry_space_group_name_H-M   'P 1'
_cell_length_a   9.30469893
_cell_length_b   9.28146768
_cell_length_c   9.96370942
_cell_angle_alpha   90.25258830
_cell_angle_beta   90.35482017
_cell_angle_gamma   59.83513219
_symmetry_Int_Tables_number   1
_chemical_formula_structural   Al11BN12
_chemical_formula_sum   'Al33 B3 N36'
_cell_volume   743.94006775
_cell_formula_units_Z   3
loop_
 _symmetry_equiv_pos_site_id
 _symmetry_equiv_pos_as_xyz
  1  'x, y, z'
loop_
 _atom_site_type_symbol
 _atom_site_label
 _atom_site_symmetry_multiplicity
 _atom_site_fract_x
 _atom_site_fract_y
 _atom_site_fract_z
 _atom_site_occupancy
  Al  Al0  1  0.11137615  0.09322884  0.31697241  1
  Al  Al1  1  0.21901443  0.20623748  0.06232928  1
  Al  Al2  1  0.78272697  0.09017124  0.80148664  1
  Al  Al3  1  0.44791165  0.09050405  0.31194812  1
  Al  Al4  1  0.55871800  0.20296101  0.06255613  1
  Al  Al5  1  0.10867067  0.09437788  0.80783472  1
  Al  Al6  1  0.21678610  0.20699430  0.55965935  1
  Al  Al7  1  0.78101915  0.09467059  0.32351724  1
  Al  Al8  1  0.88741224  0.20482042  0.06389665  1
  Al  Al9  1  0.44128952  0.09157925  0.81205133  1
  Al  Al10  1  0.56122722  0.20192725  0.56202149  1
  Al  Al11  1  0.11993928  0.42451039  0.31446207  1
  Al  Al12  1  0.22070751  0.54039448  0.06130458  1
  Al  Al13  1  0.77203071  0.42229076  0.80838817  1
  Al  Al14  1  0.88787218  0.54180163  0.62284356  1
  Al  Al15  1  0.44646282  0.42792531  0.31087483  1
  Al  Al16  1  0.55421409  0.54253903  0.05830961  1
  Al  Al17  1  0.11635378  0.42475063  0.81110748  1
  Al  Al18  1  0.21791018  0.54350524  0.55987130  1
  Al  Al19  1  0.77575851  0.42400332  0.32425804  1
  Al  Al20  1  0.88185189  0.54736542  0.13264923  1
  Al  Al21  1  0.44224240  0.43240795  0.81211575  1
  Al  Al22  1  0.55693373  0.53418311  0.56732812  1
  Al  Al23  1  0.11364825  0.76321166  0.31548808  1
  Al  Al24  1  0.22444676  0.87038865  0.05744203  1
  Al  Al25  1  0.77478410  0.75645284  0.86818589  1
  Al  Al26  1  0.44654235  0.76106243  0.31461792  1
  Al  Al27  1  0.54417621  0.87260335  0.05725592  1
  Al  Al28  1  0.10935709  0.76308643  0.80591341  1
  Al  Al29  1  0.21416658  0.87715405  0.56657475  1
  Al  Al30  1  0.78423236  0.76109745  0.39226307  1
  Al  Al31  1  0.89021090  0.87633046  0.06137136  1
  Al  Al32  1  0.55207312  0.87513336  0.57556316  1
  B  B33  1  0.89429827  0.20079853  0.55586067  1
  B  B34  1  0.89989469  0.88097022  0.55546610  1
  B  B35  1  0.44206609  0.76217037  0.80719598  1
  N  N36  1  0.22495627  0.20330865  0.37043265  1
  N  N37  1  0.11002172  0.09297556  0.12371057  1
  N  N38  1  0.88738554  0.20290080  0.87421358  1
  N  N39  1  0.80120920  0.08193471  0.60725516  1
  N  N40  1  0.55559471  0.20542417  0.37179059  1
  N  N41  1  0.44436052  0.09313701  0.11956465  1
  N  N42  1  0.21954395  0.20475488  0.87144417  1
  N  N43  1  0.08597603  0.10837748  0.61476772  1
  N  N44  1  0.89277463  0.20437841  0.39320948  1
  N  N45  1  0.77936782  0.09332781  0.13110413  1
  N  N46  1  0.55904964  0.20252160  0.86873376  1
  N  N47  1  0.44051421  0.09847231  0.62324654  1
  N  N48  1  0.22522835  0.53990297  0.37063435  1
  N  N49  1  0.11432419  0.42705270  0.12092707  1
  N  N50  1  0.88546014  0.53772951  0.81899367  1
  N  N51  1  0.78776983  0.39630966  0.61272209  1
  N  N52  1  0.55360233  0.54067914  0.37732053  1
  N  N53  1  0.44526659  0.42828431  0.11843699  1
  N  N54  1  0.22008465  0.54161575  0.87036516  1
  N  N55  1  0.11787600  0.42554559  0.61751589  1
  N  N56  1  0.88840575  0.54420076  0.33289866  1
  N  N57  1  0.77278313  0.42407224  0.12689816  1
  N  N58  1  0.54368517  0.56223823  0.86385460  1
  N  N59  1  0.44211651  0.42762642  0.62239584  1
  N  N60  1  0.22682607  0.87118312  0.37674407  1
  N  N61  1  0.11050541  0.76317552  0.12355929  1
  N  N62  1  0.89147858  0.87560462  0.87026869  1
  N  N63  1  0.78970437  0.77525655  0.58695096  1
  N  N64  1  0.55259509  0.87277470  0.37949654  1
  N  N65  1  0.44231031  0.76075673  0.12533460  1
  N  N66  1  0.24325283  0.86086439  0.86048221  1
  N  N67  1  0.08736406  0.77475271  0.61404587  1
  N  N68  1  0.89947232  0.87730565  0.39208501  1
  N  N69  1  0.77430985  0.76090360  0.06954540  1
  N  N70  1  0.53525241  0.86173044  0.86097848  1
  N  N71  1  0.44300890  0.75942928  0.64237117  1
