# generated using pymatgen
data_Al11BN12
_symmetry_space_group_name_H-M   'P 1'
_cell_length_a   9.24926119
_cell_length_b   9.27832012
_cell_length_c   9.89460725
_cell_angle_alpha   90.19531831
_cell_angle_beta   89.94023283
_cell_angle_gamma   60.05937840
_symmetry_Int_Tables_number   1
_chemical_formula_structural   Al11BN12
_chemical_formula_sum   'Al33 B3 N36'
_cell_volume   735.80109450
_cell_formula_units_Z   3
loop_
 _symmetry_equiv_pos_site_id
 _symmetry_equiv_pos_as_xyz
  1  'x, y, z'
loop_
 _atom_site_type_symbol
 _atom_site_label
 _atom_site_symmetry_multiplicity
 _atom_site_fract_x
 _atom_site_fract_y
 _atom_site_fract_z
 _atom_site_occupancy
  Al  Al0  1  0.10509583  0.09638667  0.39883660  1
  Al  Al1  1  0.22127805  0.20447838  0.14576383  1
  Al  Al2  1  0.78102398  0.09143380  0.87999614  1
  Al  Al3  1  0.44554796  0.09354239  0.39477583  1
  Al  Al4  1  0.55896685  0.20405259  0.14363853  1
  Al  Al5  1  0.11434503  0.09117301  0.88972563  1
  Al  Al6  1  0.21731776  0.20612686  0.64520771  1
  Al  Al7  1  0.78181162  0.09601668  0.40435184  1
  Al  Al8  1  0.88797959  0.20489195  0.14193786  1
  Al  Al9  1  0.44306104  0.09098264  0.89542934  1
  Al  Al10  1  0.56160638  0.20593723  0.64428746  1
  Al  Al11  1  0.11036801  0.42804714  0.39487139  1
  Al  Al12  1  0.22112451  0.54051269  0.14595331  1
  Al  Al13  1  0.77538963  0.42944153  0.88827557  1
  Al  Al14  1  0.89137905  0.53567080  0.64535938  1
  Al  Al15  1  0.44456472  0.43001642  0.39447690  1
  Al  Al16  1  0.55559964  0.54091541  0.13819861  1
  Al  Al17  1  0.11129632  0.42668085  0.89705557  1
  Al  Al18  1  0.21775942  0.54042731  0.64629436  1
  Al  Al19  1  0.77741171  0.42490849  0.39907753  1
  Al  Al20  1  0.88690241  0.53958734  0.14565384  1
  Al  Al21  1  0.44351612  0.43184430  0.89553203  1
  Al  Al22  1  0.55466321  0.54164540  0.64939709  1
  Al  Al23  1  0.10471523  0.76572595  0.39922048  1
  Al  Al24  1  0.22268313  0.87209962  0.13889195  1
  Al  Al25  1  0.77505253  0.75866182  0.89066959  1
  Al  Al26  1  0.44396944  0.76204143  0.39371136  1
  Al  Al27  1  0.55556622  0.87055117  0.13896292  1
  Al  Al28  1  0.11623966  0.75888926  0.89142626  1
  Al  Al29  1  0.21608775  0.87515443  0.64970606  1
  Al  Al30  1  0.77865242  0.76610804  0.39917168  1
  Al  Al31  1  0.88778693  0.87461081  0.14383272  1
  Al  Al32  1  0.55568621  0.87268007  0.65032953  1
  B  B33  1  0.89061871  0.19797727  0.65027034  1
  B  B34  1  0.90084795  0.85471774  0.65573762  1
  B  B35  1  0.44426457  0.76081179  0.89804525  1
  N  N36  1  0.22103274  0.20405856  0.33834558  1
  N  N37  1  0.10983673  0.09477176  0.08144738  1
  N  N38  1  0.89058935  0.20455314  0.81473930  1
  N  N39  1  0.79478603  0.10006925  0.59749545  1
  N  N40  1  0.55849014  0.20523117  0.33807307  1
  N  N41  1  0.44446762  0.09457610  0.08673036  1
  N  N42  1  0.22222542  0.20587078  0.83559292  1
  N  N43  1  0.08653128  0.10444655  0.59441617  1
  N  N44  1  0.88738717  0.20682956  0.33222203  1
  N  N45  1  0.78025007  0.09242068  0.07487238  1
  N  N46  1  0.55397153  0.20600556  0.83519925  1
  N  N47  1  0.44534893  0.09365788  0.58743767  1
  N  N48  1  0.21985118  0.54270205  0.33841480  1
  N  N49  1  0.11084170  0.42727696  0.08883512  1
  N  N50  1  0.89064122  0.53714761  0.83495503  1
  N  N51  1  0.78532014  0.40843452  0.59407482  1
  N  N52  1  0.55588877  0.54101770  0.33209900  1
  N  N53  1  0.44423395  0.42721648  0.08666887  1
  N  N54  1  0.22228818  0.53696263  0.83644699  1
  N  N55  1  0.11166916  0.42636312  0.58504628  1
  N  N56  1  0.88530866  0.54189125  0.33997405  1
  N  N57  1  0.77937665  0.42564527  0.08059655  1
  N  N58  1  0.54227738  0.56427410  0.84286281  1
  N  N59  1  0.44187279  0.43242950  0.58707788  1
  N  N60  1  0.22061990  0.87304936  0.33513752  1
  N  N61  1  0.10948962  0.76132406  0.08261293  1
  N  N62  1  0.89211566  0.86649086  0.81512171  1
  N  N63  1  0.79030731  0.77444478  0.59618765  1
  N  N64  1  0.55683941  0.87092790  0.33325683  1
  N  N65  1  0.44399670  0.76127762  0.06534638  1
  N  N66  1  0.24712013  0.85913932  0.84190581  1
  N  N67  1  0.08602066  0.77214533  0.59619053  1
  N  N68  1  0.88618080  0.87736938  0.33485958  1
  N  N69  1  0.77973571  0.76093044  0.08229143  1
  N  N70  1  0.54295389  0.85957359  0.84317058  1
  N  N71  1  0.44267678  0.76337853  0.58360163  1
