# generated using pymatgen
data_Al11BN12
_symmetry_space_group_name_H-M   'P 1'
_cell_length_a   9.29588950
_cell_length_b   9.28384655
_cell_length_c   9.98026135
_cell_angle_alpha   89.97094665
_cell_angle_beta   90.29639165
_cell_angle_gamma   60.02103813
_symmetry_Int_Tables_number   1
_chemical_formula_structural   Al11BN12
_chemical_formula_sum   'Al33 B3 N36'
_cell_volume   746.06197146
_cell_formula_units_Z   3
loop_
 _symmetry_equiv_pos_site_id
 _symmetry_equiv_pos_as_xyz
  1  'x, y, z'
loop_
 _atom_site_type_symbol
 _atom_site_label
 _atom_site_symmetry_multiplicity
 _atom_site_fract_x
 _atom_site_fract_y
 _atom_site_fract_z
 _atom_site_occupancy
  Al  Al0  1  0.11363145  0.09142731  0.31435263  1
  Al  Al1  1  0.21769482  0.20738812  0.06153672  1
  Al  Al2  1  0.78292104  0.08904060  0.80020440  1
  Al  Al3  1  0.44762006  0.09178177  0.31133517  1
  Al  Al4  1  0.55826961  0.20419465  0.06193282  1
  Al  Al5  1  0.10937433  0.09287077  0.80626892  1
  Al  Al6  1  0.21665021  0.20727614  0.55926690  1
  Al  Al7  1  0.78149513  0.09438812  0.32051455  1
  Al  Al8  1  0.88751946  0.20459177  0.06027472  1
  Al  Al9  1  0.44202513  0.09063570  0.81179757  1
  Al  Al10  1  0.56191895  0.20276909  0.56080135  1
  Al  Al11  1  0.12026942  0.42416080  0.31237845  1
  Al  Al12  1  0.21896483  0.54061710  0.06155011  1
  Al  Al13  1  0.77189149  0.42842436  0.83608155  1
  Al  Al14  1  0.88711717  0.54586281  0.62766280  1
  Al  Al15  1  0.44874253  0.42831765  0.31028017  1
  Al  Al16  1  0.55011857  0.54529143  0.05599805  1
  Al  Al17  1  0.11736725  0.42383596  0.81128659  1
  Al  Al18  1  0.21752231  0.54255947  0.55876245  1
  Al  Al19  1  0.78382368  0.42488971  0.38700945  1
  Al  Al20  1  0.87667891  0.54349704  0.13437217  1
  Al  Al21  1  0.44065800  0.43201646  0.81177055  1
  Al  Al22  1  0.54992887  0.54037703  0.57401665  1
  Al  Al23  1  0.11507698  0.76237559  0.31443207  1
  Al  Al24  1  0.22363389  0.87080044  0.05659271  1
  Al  Al25  1  0.77440265  0.75632197  0.87475566  1
  Al  Al26  1  0.44840362  0.75924809  0.31395771  1
  Al  Al27  1  0.54327278  0.87365256  0.05925615  1
  Al  Al28  1  0.10842210  0.76263678  0.80547511  1
  Al  Al29  1  0.21468142  0.87619788  0.56492605  1
  Al  Al30  1  0.78467437  0.76092657  0.38824104  1
  Al  Al31  1  0.89005551  0.87658683  0.06236743  1
  Al  Al32  1  0.55294740  0.87654852  0.57330921  1
  B  B33  1  0.90144500  0.18577034  0.55515085  1
  B  B34  1  0.90030157  0.87698209  0.55323174  1
  B  B35  1  0.43965179  0.76369407  0.80697039  1
  N  N36  1  0.22484202  0.20349446  0.37023440  1
  N  N37  1  0.10959902  0.09270522  0.12230277  1
  N  N38  1  0.88962460  0.19885107  0.86862475  1
  N  N39  1  0.80316054  0.08200790  0.60606485  1
  N  N40  1  0.55689376  0.20557051  0.37107159  1
  N  N41  1  0.44319298  0.09452119  0.11940760  1
  N  N42  1  0.21975903  0.20392589  0.87052623  1
  N  N43  1  0.08727438  0.10568123  0.61405966  1
  N  N44  1  0.89921148  0.19410101  0.39372736  1
  N  N45  1  0.77911902  0.09397979  0.12952992  1
  N  N46  1  0.55928191  0.20256053  0.86815269  1
  N  N47  1  0.44141514  0.09859813  0.62266075  1
  N  N48  1  0.22612051  0.53892084  0.36985034  1
  N  N49  1  0.11188473  0.42753340  0.12074216  1
  N  N50  1  0.88594025  0.54072255  0.81853420  1
  N  N51  1  0.78775566  0.40588526  0.59501540  1
  N  N52  1  0.55271560  0.54160885  0.38071296  1
  N  N53  1  0.44405020  0.42891406  0.11816936  1
  N  N54  1  0.21940895  0.54145676  0.87069919  1
  N  N55  1  0.11732053  0.42509151  0.61811443  1
  N  N56  1  0.88737218  0.54167151  0.33173117  1
  N  N57  1  0.77346531  0.42835334  0.08777875  1
  N  N58  1  0.53686940  0.56653792  0.85957792  1
  N  N59  1  0.44110891  0.42686142  0.62286815  1
  N  N60  1  0.22858203  0.87000959  0.37573057  1
  N  N61  1  0.11049167  0.76292928  0.12308828  1
  N  N62  1  0.89090615  0.87502677  0.87081043  1
  N  N63  1  0.79112614  0.77637899  0.58300204  1
  N  N64  1  0.55299291  0.87322944  0.37779087  1
  N  N65  1  0.44080335  0.76119647  0.12530875  1
  N  N66  1  0.24214655  0.86104747  0.85999503  1
  N  N67  1  0.08773705  0.77321207  0.61304830  1
  N  N68  1  0.90051380  0.87646471  0.38953882  1
  N  N69  1  0.77394776  0.76122824  0.07361480  1
  N  N70  1  0.53529308  0.86158716  0.86269196  1
  N  N71  1  0.44066418  0.76429721  0.64238666  1
