# generated using pymatgen
data_Al11BN12
_symmetry_space_group_name_H-M   'P 1'
_cell_length_a   9.25908254
_cell_length_b   9.25658036
_cell_length_c   9.89722593
_cell_angle_alpha   89.99996852
_cell_angle_beta   89.91028228
_cell_angle_gamma   60.00901769
_symmetry_Int_Tables_number   1
_chemical_formula_structural   Al11BN12
_chemical_formula_sum   'Al33 B3 N36'
_cell_volume   734.68537431
_cell_formula_units_Z   3
loop_
 _symmetry_equiv_pos_site_id
 _symmetry_equiv_pos_as_xyz
  1  'x, y, z'
loop_
 _atom_site_type_symbol
 _atom_site_label
 _atom_site_symmetry_multiplicity
 _atom_site_fract_x
 _atom_site_fract_y
 _atom_site_fract_z
 _atom_site_occupancy
  Al  Al0  1  0.10557853  0.09561493  0.40362976  1
  Al  Al1  1  0.22094002  0.20488803  0.15027813  1
  Al  Al2  1  0.78034387  0.09316285  0.88721493  1
  Al  Al3  1  0.44477989  0.09283343  0.39935057  1
  Al  Al4  1  0.55855598  0.20405656  0.14903863  1
  Al  Al5  1  0.11491204  0.09115431  0.89477974  1
  Al  Al6  1  0.21628054  0.20757589  0.65017930  1
  Al  Al7  1  0.78274645  0.09196127  0.40837986  1
  Al  Al8  1  0.88815804  0.20463968  0.14765393  1
  Al  Al9  1  0.44270849  0.09140775  0.89999485  1
  Al  Al10  1  0.56140741  0.20263055  0.64940547  1
  Al  Al11  1  0.10979415  0.42843706  0.39933011  1
  Al  Al12  1  0.22093996  0.54084064  0.15027793  1
  Al  Al13  1  0.77562160  0.43024036  0.89298590  1
  Al  Al14  1  0.89010559  0.53828117  0.64901293  1
  Al  Al15  1  0.44477965  0.42905586  0.39935071  1
  Al  Al16  1  0.55578532  0.54050348  0.14254263  1
  Al  Al17  1  0.11060453  0.42803222  0.90119792  1
  Al  Al18  1  0.21628019  0.54281293  0.65017955  1
  Al  Al19  1  0.77763579  0.42327970  0.40377721  1
  Al  Al20  1  0.88652044  0.54007392  0.14984837  1
  Al  Al21  1  0.44270838  0.43255338  0.89999462  1
  Al  Al22  1  0.55548596  0.53925597  0.65428785  1
  Al  Al23  1  0.10557850  0.76547457  0.40362982  1
  Al  Al24  1  0.22309961  0.87178427  0.14300116  1
  Al  Al25  1  0.77562148  0.76080738  0.89298591  1
  Al  Al26  1  0.44450811  0.76108061  0.39773051  1
  Al  Al27  1  0.55578555  0.87037937  0.14254261  1
  Al  Al28  1  0.11491188  0.76060348  0.89477971  1
  Al  Al29  1  0.21825364  0.87420795  0.65418204  1
  Al  Al30  1  0.77763620  0.76575266  0.40377731  1
  Al  Al31  1  0.88815778  0.87387153  0.14765398  1
  Al  Al32  1  0.55548596  0.87192619  0.65428797  1
  B  B33  1  0.89458142  0.19712824  0.65660626  1
  B  B34  1  0.89458146  0.87495912  0.65660637  1
  B  B35  1  0.44460018  0.76103456  0.90242773  1
  N  N36  1  0.22046415  0.20417987  0.34282042  1
  N  N37  1  0.10937009  0.09536015  0.08628237  1
  N  N38  1  0.89125190  0.20443280  0.81956258  1
  N  N39  1  0.80023814  0.08321531  0.60426073  1
  N  N40  1  0.55916001  0.20375473  0.34370594  1
  N  N41  1  0.44382537  0.09539033  0.09121991  1
  N  N42  1  0.22182954  0.20677838  0.84033525  1
  N  N43  1  0.08676890  0.10465424  0.59959916  1
  N  N44  1  0.88741531  0.20464881  0.33820137  1
  N  N45  1  0.77947619  0.09359644  0.08102042  1
  N  N46  1  0.55406773  0.20630090  0.83993289  1
  N  N47  1  0.44297888  0.09378824  0.59188793  1
  N  N48  1  0.22046413  0.54202450  0.34282032  1
  N  N49  1  0.11019643  0.42823601  0.09305821  1
  N  N50  1  0.89021282  0.53822829  0.83858245  1
  N  N51  1  0.78680881  0.40302472  0.59916796  1
  N  N52  1  0.55644589  0.53963373  0.33653935  1
  N  N53  1  0.44382502  0.42745303  0.09121962  1
  N  N54  1  0.22182924  0.53806180  0.84033529  1
  N  N55  1  0.11044256  0.42811315  0.58928449  1
  N  N56  1  0.88481354  0.54092738  0.34438375  1
  N  N57  1  0.77949574  0.42561644  0.08528150  1
  N  N58  1  0.54280469  0.56379549  0.84736973  1
  N  N59  1  0.44297859  0.42990129  0.59188790  1
  N  N60  1  0.22140887  0.87262975  0.33893750  1
  N  N61  1  0.10936973  0.76193842  0.08628231  1
  N  N62  1  0.89125179  0.87098483  0.81956267  1
  N  N63  1  0.78680887  0.77683447  0.59916808  1
  N  N64  1  0.55644621  0.87058940  0.33653932  1
  N  N65  1  0.44413576  0.76126626  0.06944220  1
  N  N66  1  0.24799768  0.85933599  0.84638058  1
  N  N67  1  0.08676880  0.77524591  0.59959928  1
  N  N68  1  0.88741523  0.87460495  0.33820148  1
  N  N69  1  0.77949591  0.76155619  0.08528156  1
  N  N70  1  0.54280450  0.86006927  0.84736997  1
  N  N71  1  0.44394825  0.76135998  0.58765662  1
