# generated using pymatgen
data_Al11BN12
_symmetry_space_group_name_H-M   'P 1'
_cell_length_a   9.28603295
_cell_length_b   9.27771522
_cell_length_c   10.07971194
_cell_angle_alpha   89.99999756
_cell_angle_beta   90.28604083
_cell_angle_gamma   60.03090316
_symmetry_Int_Tables_number   1
_chemical_formula_structural   Al11BN12
_chemical_formula_sum   'Al33 B3 N36'
_cell_volume   752.27729491
_cell_formula_units_Z   3
loop_
 _symmetry_equiv_pos_site_id
 _symmetry_equiv_pos_as_xyz
  1  'x, y, z'
loop_
 _atom_site_type_symbol
 _atom_site_label
 _atom_site_symmetry_multiplicity
 _atom_site_fract_x
 _atom_site_fract_y
 _atom_site_fract_z
 _atom_site_occupancy
  Al  Al0  1  0.10598239  0.10001721  0.39910758  1
  Al  Al1  1  0.21681054  0.20575634  0.14098165  1
  Al  Al2  1  0.78263485  0.09195739  0.87481300  1
  Al  Al3  1  0.45494225  0.08793117  0.32562759  1
  Al  Al4  1  0.55308342  0.20673462  0.06806208  1
  Al  Al5  1  0.10996728  0.09763461  0.87874507  1
  Al  Al6  1  0.20792899  0.21363201  0.64209303  1
  Al  Al7  1  0.79175889  0.08739561  0.39978590  1
  Al  Al8  1  0.88901732  0.20378127  0.13712440  1
  Al  Al9  1  0.44568199  0.08841113  0.82087084  1
  Al  Al10  1  0.55726735  0.20464301  0.57967569  1
  Al  Al11  1  0.11290387  0.42682417  0.38900231  1
  Al  Al12  1  0.21680997  0.54398767  0.14098193  1
  Al  Al13  1  0.77751749  0.42936923  0.87849880  1
  Al  Al14  1  0.88958921  0.53847990  0.64022243  1
  Al  Al15  1  0.45494146  0.42367833  0.32562784  1
  Al  Al16  1  0.54876162  0.54544020  0.06741486  1
  Al  Al17  1  0.10931577  0.42861791  0.89479878  1
  Al  Al18  1  0.20792854  0.54499406  0.64209306  1
  Al  Al19  1  0.78607830  0.41961692  0.39588752  1
  Al  Al20  1  0.88432278  0.54111367  0.13890402  1
  Al  Al21  1  0.44568111  0.43245811  0.82087112  1
  Al  Al22  1  0.55402029  0.53798494  0.58199079  1
  Al  Al23  1  0.10598195  0.76055384  0.39910749  1
  Al  Al24  1  0.23250713  0.86702376  0.06462457  1
  Al  Al25  1  0.77751786  0.75966177  0.87849884  1
  Al  Al26  1  0.44317643  0.76168758  0.32758847  1
  Al  Al27  1  0.54876286  0.87234969  0.06741517  1
  Al  Al28  1  0.10996674  0.75895006  0.87874509  1
  Al  Al29  1  0.21731799  0.87461868  0.59660316  1
  Al  Al30  1  0.78607868  0.76085413  0.39588734  1
  Al  Al31  1  0.88901762  0.87375256  0.13712453  1
  Al  Al32  1  0.55402057  0.87454660  0.58199070  1
  B  B33  1  0.89322322  0.19947448  0.64743838  1
  B  B34  1  0.89322352  0.87384947  0.64743879  1
  B  B35  1  0.44280655  0.76187310  0.81713029  1
  N  N36  1  0.21839323  0.20463487  0.33280234  1
  N  N37  1  0.10871725  0.09797609  0.07187791  1
  N  N38  1  0.88669927  0.20665895  0.80757291  1
  N  N39  1  0.80355553  0.08149729  0.59494297  1
  N  N40  1  0.55711365  0.20472056  0.38868969  1
  N  N41  1  0.45284725  0.08930054  0.13286055  1
  N  N42  1  0.21423601  0.21291900  0.83083537  1
  N  N43  1  0.08197622  0.11181296  0.59387740  1
  N  N44  1  0.88966095  0.20359725  0.32609849  1
  N  N45  1  0.78783995  0.08935386  0.06855592  1
  N  N46  1  0.54737907  0.20958766  0.87787556  1
  N  N47  1  0.44398579  0.09475333  0.63221861  1
  N  N48  1  0.21839246  0.54352862  0.33280272  1
  N  N49  1  0.11065634  0.42794717  0.08291584  1
  N  N50  1  0.88944248  0.53855473  0.82624101  1
  N  N51  1  0.79368611  0.39911004  0.58979058  1
  N  N52  1  0.55305019  0.54265194  0.39057465  1
  N  N53  1  0.45284652  0.42440158  0.13286090  1
  N  N54  1  0.21423495  0.53940078  0.83083534  1
  N  N55  1  0.10848666  0.42903230  0.57586223  1
  N  N56  1  0.88602464  0.54026388  0.33077535  1
  N  N57  1  0.78260161  0.42360560  0.07193794  1
  N  N58  1  0.53684091  0.56770979  0.87432927  1
  N  N59  1  0.44398509  0.42781012  0.63221903  1
  N  N60  1  0.22907861  0.86873914  0.39758777  1
  N  N61  1  0.10871710  0.75985745  0.07187811  1
  N  N62  1  0.88669878  0.87319380  0.80757313  1
  N  N63  1  0.79368692  0.77375130  0.58979132  1
  N  N64  1  0.55305087  0.87085215  0.39057430  1
  N  N65  1  0.44451562  0.76101688  0.13902892  1
  N  N66  1  0.24790537  0.85932456  0.86453520  1
  N  N67  1  0.08197619  0.77276226  0.59387773  1
  N  N68  1  0.88966088  0.87329502  0.32609867  1
  N  N69  1  0.78260248  0.76033972  0.07193831  1
  N  N70  1  0.53684150  0.86200237  0.87432866  1
  N  N71  1  0.44761785  0.75946572  0.65571751  1
