# generated using pymatgen
data_Al11BN12
_symmetry_space_group_name_H-M   'P 1'
_cell_length_a   9.26711271
_cell_length_b   9.33060903
_cell_length_c   9.98966064
_cell_angle_alpha   90.24047483
_cell_angle_beta   89.74357601
_cell_angle_gamma   60.04602187
_symmetry_Int_Tables_number   1
_chemical_formula_structural   Al11BN12
_chemical_formula_sum   'Al33 B3 N36'
_cell_volume   748.37746966
_cell_formula_units_Z   3
loop_
 _symmetry_equiv_pos_site_id
 _symmetry_equiv_pos_as_xyz
  1  'x, y, z'
loop_
 _atom_site_type_symbol
 _atom_site_label
 _atom_site_symmetry_multiplicity
 _atom_site_fract_x
 _atom_site_fract_y
 _atom_site_fract_z
 _atom_site_occupancy
  Al  Al0  1  0.10274805  0.10183992  0.40222626  1
  Al  Al1  1  0.22157731  0.20260332  0.14330516  1
  Al  Al2  1  0.77984466  0.09164575  0.87718044  1
  Al  Al3  1  0.44605862  0.09522521  0.39557351  1
  Al  Al4  1  0.55953579  0.20381498  0.14166813  1
  Al  Al5  1  0.10887873  0.09880575  0.87669283  1
  Al  Al6  1  0.21773108  0.20842348  0.64440104  1
  Al  Al7  1  0.78150913  0.09937880  0.40247813  1
  Al  Al8  1  0.89206587  0.20197978  0.13845746  1
  Al  Al9  1  0.44326788  0.09022631  0.89435964  1
  Al  Al10  1  0.56174359  0.20903379  0.64328062  1
  Al  Al11  1  0.11118018  0.42692352  0.39208530  1
  Al  Al12  1  0.22163978  0.54198476  0.14339081  1
  Al  Al13  1  0.77204228  0.43182886  0.88857552  1
  Al  Al14  1  0.89240710  0.53298508  0.64613343  1
  Al  Al15  1  0.44446924  0.42785739  0.39488086  1
  Al  Al16  1  0.56032168  0.53242731  0.14503476  1
  Al  Al17  1  0.11121641  0.42608513  0.89750675  1
  Al  Al18  1  0.21890891  0.53597066  0.64603701  1
  Al  Al19  1  0.78040556  0.42337291  0.39924822  1
  Al  Al20  1  0.88773895  0.53902663  0.14507266  1
  Al  Al21  1  0.44445354  0.43207080  0.89413923  1
  Al  Al22  1  0.55842117  0.53303704  0.64486471  1
  Al  Al23  1  0.10185786  0.76094508  0.40197313  1
  Al  Al24  1  0.23762911  0.86590568  0.06204494  1
  Al  Al25  1  0.77093970  0.75747888  0.89310988  1
  Al  Al26  1  0.43602841  0.76484709  0.33388804  1
  Al  Al27  1  0.56046012  0.87483455  0.14690907  1
  Al  Al28  1  0.11319261  0.75469186  0.88156498  1
  Al  Al29  1  0.20774983  0.87963969  0.60009016  1
  Al  Al30  1  0.78203824  0.76436366  0.39954508  1
  Al  Al31  1  0.89196889  0.87443644  0.14225807  1
  Al  Al32  1  0.55953145  0.87865079  0.64779754  1
  B  B33  1  0.88351998  0.20774858  0.64714147  1
  B  B34  1  0.90730334  0.82814847  0.66138022  1
  B  B35  1  0.43962195  0.76336295  0.80824971  1
  N  N36  1  0.22218643  0.20222597  0.33537580  1
  N  N37  1  0.11025750  0.09704633  0.07165751  1
  N  N38  1  0.88414906  0.20934804  0.81268207  1
  N  N39  1  0.78471973  0.12460797  0.58998063  1
  N  N40  1  0.55823613  0.20518038  0.33436444  1
  N  N41  1  0.44584849  0.09331698  0.08501694  1
  N  N42  1  0.22348660  0.20778697  0.83251722  1
  N  N43  1  0.07933424  0.11663420  0.59801967  1
  N  N44  1  0.89099760  0.20591082  0.32776825  1
  N  N45  1  0.78174076  0.09118873  0.07225712  1
  N  N46  1  0.55328071  0.20606248  0.83372440  1
  N  N47  1  0.44535645  0.09695409  0.58565515  1
  N  N48  1  0.22020162  0.54251863  0.33498927  1
  N  N49  1  0.11229668  0.42651088  0.08773176  1
  N  N50  1  0.89036578  0.53697488  0.83506138  1
  N  N51  1  0.78621129  0.41366533  0.59156498  1
  N  N52  1  0.56044003  0.53274019  0.33991037  1
  N  N53  1  0.44559565  0.42688382  0.08449070  1
  N  N54  1  0.22351562  0.53329679  0.83390194  1
  N  N55  1  0.11150825  0.42617206  0.58175365  1
  N  N56  1  0.88640652  0.54165304  0.33781823  1
  N  N57  1  0.77984744  0.42534653  0.07993165  1
  N  N58  1  0.54391727  0.55958922  0.83678183  1
  N  N59  1  0.43818783  0.43346449  0.58451356  1
  N  N60  1  0.22328053  0.87010342  0.40333246  1
  N  N61  1  0.11054074  0.75971525  0.07478769  1
  N  N62  1  0.88816351  0.86367155  0.81318182  1
  N  N63  1  0.79337577  0.76906712  0.59580424  1
  N  N64  1  0.56127845  0.87337398  0.34311685  1
  N  N65  1  0.44062456  0.76350386  0.13994575  1
  N  N66  1  0.24916790  0.85795538  0.86226849  1
  N  N67  1  0.07962269  0.76555901  0.60023630  1
  N  N68  1  0.88765500  0.87781366  0.33341448  1
  N  N69  1  0.78077172  0.76087644  0.08301407  1
  N  N70  1  0.54494203  0.86273692  0.83844288  1
  N  N71  1  0.43611181  0.76715194  0.64490668  1
