# generated using pymatgen
data_Al11BN12
_symmetry_space_group_name_H-M   'P 1'
_cell_length_a   9.25909724
_cell_length_b   9.25657848
_cell_length_c   9.89724176
_cell_angle_alpha   90.00000587
_cell_angle_beta   89.91066790
_cell_angle_gamma   60.00900096
_symmetry_Int_Tables_number   1
_chemical_formula_structural   Al11BN12
_chemical_formula_sum   'Al33 B3 N36'
_cell_volume   734.68745253
_cell_formula_units_Z   3
loop_
 _symmetry_equiv_pos_site_id
 _symmetry_equiv_pos_as_xyz
  1  'x, y, z'
loop_
 _atom_site_type_symbol
 _atom_site_label
 _atom_site_symmetry_multiplicity
 _atom_site_fract_x
 _atom_site_fract_y
 _atom_site_fract_z
 _atom_site_occupancy
  Al  Al0  1  0.10548285  0.09566177  0.41867500  1
  Al  Al1  1  0.22084213  0.20493658  0.16533839  1
  Al  Al2  1  0.78024102  0.09321323  0.90225512  1
  Al  Al3  1  0.44468408  0.09287634  0.41440605  1
  Al  Al4  1  0.55846153  0.20410267  0.16410241  1
  Al  Al5  1  0.11481091  0.09120325  0.90982848  1
  Al  Al6  1  0.21617625  0.20762516  0.66524094  1
  Al  Al7  1  0.78265586  0.09200551  0.42342859  1
  Al  Al8  1  0.88805952  0.20468764  0.16269315  1
  Al  Al9  1  0.44260950  0.09145967  0.91504907  1
  Al  Al10  1  0.56130184  0.20268221  0.66445027  1
  Al  Al11  1  0.10970112  0.42848253  0.41439441  1
  Al  Al12  1  0.22084211  0.54088774  0.16533821  1
  Al  Al13  1  0.77551820  0.43029229  0.90802884  1
  Al  Al14  1  0.89000174  0.53833201  0.66405918  1
  Al  Al15  1  0.44468386  0.42910663  0.41440619  1
  Al  Al16  1  0.55568511  0.54055289  0.15758272  1
  Al  Al17  1  0.11049973  0.42808363  0.91626220  1
  Al  Al18  1  0.21617591  0.54286571  0.66524118  1
  Al  Al19  1  0.77753986  0.42332481  0.41881754  1
  Al  Al20  1  0.88641866  0.54012371  0.16490428  1
  Al  Al21  1  0.44260944  0.43259828  0.91504886  1
  Al  Al22  1  0.55538300  0.53930682  0.66932936  1
  Al  Al23  1  0.10548281  0.76552132  0.41867510  1
  Al  Al24  1  0.22300236  0.87183178  0.15804779  1
  Al  Al25  1  0.77551803  0.76085687  0.90802881  1
  Al  Al26  1  0.44441508  0.76112606  0.41276971  1
  Al  Al27  1  0.55568529  0.87042793  0.15758264  1
  Al  Al28  1  0.11481076  0.76065358  0.90982842  1
  Al  Al29  1  0.21814827  0.87425952  0.66922175  1
  Al  Al30  1  0.77754025  0.76580137  0.41881764  1
  Al  Al31  1  0.88805927  0.87391989  0.16269321  1
  Al  Al32  1  0.55538301  0.87197610  0.66932945  1
  B  B33  1  0.89447788  0.19717843  0.67165048  1
  B  B34  1  0.89447792  0.87501045  0.67165058  1
  B  B35  1  0.44449404  0.76108644  0.91746610  1
  N  N36  1  0.22036920  0.20422750  0.35787839  1
  N  N37  1  0.10927420  0.09540823  0.10133139  1
  N  N38  1  0.89115027  0.20448375  0.83460830  1
  N  N39  1  0.80013642  0.08326510  0.61930802  1
  N  N40  1  0.55906506  0.20380103  0.35876877  1
  N  N41  1  0.44372656  0.09544326  0.10627487  1
  N  N42  1  0.22172760  0.20683034  0.85539608  1
  N  N43  1  0.08666449  0.10470662  0.61464559  1
  N  N44  1  0.88732076  0.20469385  0.35324153  1
  N  N45  1  0.77937377  0.09364661  0.09606260  1
  N  N46  1  0.55396533  0.20635090  0.85497737  1
  N  N47  1  0.44287111  0.09383943  0.60694079  1
  N  N48  1  0.22036918  0.54206952  0.35787825  1
  N  N49  1  0.11009431  0.42828606  0.10812137  1
  N  N50  1  0.89011240  0.53827738  0.85362930  1
  N  N51  1  0.78670546  0.40307324  0.61420972  1
  N  N52  1  0.55635047  0.53967985  0.35157946  1
  N  N53  1  0.44372627  0.42749681  0.10627461  1
  N  N54  1  0.22172736  0.53810945  0.85539626  1
  N  N55  1  0.11034289  0.42816195  0.60434674  1
  N  N56  1  0.88472130  0.54097233  0.35943798  1
  N  N57  1  0.77939597  0.42566731  0.10032451  1
  N  N58  1  0.54269979  0.56384532  0.86241210  1
  N  N59  1  0.44287085  0.42995577  0.60694085  1
  N  N60  1  0.22131452  0.87267576  0.35398244  1
  N  N61  1  0.10927388  0.76198411  0.10133133  1
  N  N62  1  0.89115015  0.87103326  0.83460834  1
  N  N63  1  0.78670548  0.77688722  0.61420981  1
  N  N64  1  0.55635075  0.87063634  0.35157945  1
  N  N65  1  0.44403336  0.76131639  0.08448106  1
  N  N66  1  0.24789350  0.85938692  0.86142113  1
  N  N67  1  0.08666442  0.77529583  0.61464569  1
  N  N68  1  0.88732069  0.87465208  0.35324164  1
  N  N69  1  0.77939611  0.76160305  0.10032463  1
  N  N70  1  0.54269956  0.86012202  0.86241227  1
  N  N71  1  0.44384450  0.76141083  0.60269660  1
