# generated using pymatgen
data_Al11BN12
_symmetry_space_group_name_H-M   'P 1'
_cell_length_a   9.25908785
_cell_length_b   9.25658761
_cell_length_c   9.89720972
_cell_angle_alpha   89.99997249
_cell_angle_beta   89.91027718
_cell_angle_gamma   60.00901027
_symmetry_Int_Tables_number   1
_chemical_formula_structural   Al11BN12
_chemical_formula_sum   'Al33 B3 N36'
_cell_volume   734.68511294
_cell_formula_units_Z   3
loop_
 _symmetry_equiv_pos_site_id
 _symmetry_equiv_pos_as_xyz
  1  'x, y, z'
loop_
 _atom_site_type_symbol
 _atom_site_label
 _atom_site_symmetry_multiplicity
 _atom_site_fract_x
 _atom_site_fract_y
 _atom_site_fract_z
 _atom_site_occupancy
  Al  Al0  1  0.10551030  0.09564828  0.41380828  1
  Al  Al1  1  0.22087320  0.20492041  0.16045585  1
  Al  Al2  1  0.78027607  0.09319581  0.89739138  1
  Al  Al3  1  0.44471248  0.09286647  0.40952629  1
  Al  Al4  1  0.55848866  0.20408926  0.15921370  1
  Al  Al5  1  0.11484522  0.09118677  0.90496076  1
  Al  Al6  1  0.21621277  0.20760916  0.66035575  1
  Al  Al7  1  0.78267944  0.09199389  0.41855746  1
  Al  Al8  1  0.88809036  0.20467235  0.15782996  1
  Al  Al9  1  0.44264114  0.09144050  0.91017065  1
  Al  Al10  1  0.56133984  0.20266345  0.65957984  1
  Al  Al11  1  0.10972700  0.42846972  0.40950432  1
  Al  Al12  1  0.22087314  0.54087323  0.16045564  1
  Al  Al13  1  0.77555420  0.43027384  0.90316542  1
  Al  Al14  1  0.89003867  0.53831371  0.65918797  1
  Al  Al15  1  0.44471223  0.42908840  0.40952639  1
  Al  Al16  1  0.55571773  0.54053622  0.15272239  1
  Al  Al17  1  0.11053664  0.42806527  0.91137683  1
  Al  Al18  1  0.21621240  0.54284562  0.66035598  1
  Al  Al19  1  0.77756867  0.42331151  0.41395531  1
  Al  Al20  1  0.88645266  0.54010688  0.16002753  1
  Al  Al21  1  0.44264104  0.43258611  0.91017044  1
  Al  Al22  1  0.55541868  0.53928881  0.66446544  1
  Al  Al23  1  0.10551023  0.76550762  0.41380836  1
  Al  Al24  1  0.22303260  0.87181684  0.15318345  1
  Al  Al25  1  0.77555405  0.76083948  0.90316544  1
  Al  Al26  1  0.44444081  0.76111331  0.40790795  1
  Al  Al27  1  0.55571791  0.87041233  0.15272238  1
  Al  Al28  1  0.11484507  0.76063599  0.90496071  1
  Al  Al29  1  0.21818629  0.87424071  0.66436101  1
  Al  Al30  1  0.77756905  0.76578614  0.41395543  1
  Al  Al31  1  0.88809008  0.87390469  0.15783003  1
  Al  Al32  1  0.55541871  0.87195877  0.66446558  1
  B  B33  1  0.89451450  0.19716141  0.66678546  1
  B  B34  1  0.89451453  0.87499098  0.66678557  1
  B  B35  1  0.44453232  0.76106754  0.91260678  1
  N  N36  1  0.22039682  0.20421211  0.35299839  1
  N  N37  1  0.10930326  0.09539215  0.09646308  1
  N  N38  1  0.89118496  0.20446581  0.82974276  1
  N  N39  1  0.80017114  0.08324793  0.61443978  1
  N  N40  1  0.55909287  0.20378739  0.35388260  1
  N  N41  1  0.44375825  0.09542265  0.10139727  1
  N  N42  1  0.22176152  0.20681149  0.85051343  1
  N  N43  1  0.08670130  0.10468713  0.60977827  1
  N  N44  1  0.88734781  0.20468144  0.34837867  1
  N  N45  1  0.77940884  0.09362917  0.09119707  1
  N  N46  1  0.55400005  0.20633380  0.85010895  1
  N  N47  1  0.44291132  0.09382076  0.60206510  1
  N  N48  1  0.22039675  0.54205782  0.35299821  1
  N  N49  1  0.11012865  0.42826898  0.10323799  1
  N  N50  1  0.89014550  0.53826104  0.84875965  1
  N  N51  1  0.78674171  0.40305688  0.60934655  1
  N  N52  1  0.55637861  0.53966655  0.34671882  1
  N  N53  1  0.44375793  0.42748592  0.10139701  1
  N  N54  1  0.22176123  0.53809487  0.85051361  1
  N  N55  1  0.11037553  0.42814576  0.59946029  1
  N  N56  1  0.88474539  0.54096055  0.35456307  1
  N  N57  1  0.77942817  0.42564964  0.09546119  1
  N  N58  1  0.54273739  0.56382848  0.85754842  1
  N  N59  1  0.44291099  0.42993452  0.60206511  1
  N  N60  1  0.22134137  0.87266257  0.34911847  1
  N  N61  1  0.10930291  0.76197137  0.09646303  1
  N  N62  1  0.89118481  0.87101693  0.82974283  1
  N  N63  1  0.78674177  0.77686762  0.60934670  1
  N  N64  1  0.55637888  0.87062202  0.34671887  1
  N  N65  1  0.44406824  0.76129906  0.07962273  1
  N  N66  1  0.24793040  0.85936871  0.85656059  1
  N  N67  1  0.08670118  0.77527880  0.60977836  1
  N  N68  1  0.88734770  0.87463799  0.34837881  1
  N  N69  1  0.77942830  0.76158870  0.09546133  1
  N  N70  1  0.54273716  0.86010170  0.85754866  1
  N  N71  1  0.44388089  0.76139274  0.59783540  1
