# generated using pymatgen
data_Al11BN12
_symmetry_space_group_name_H-M   'P 1'
_cell_length_a   9.31520460
_cell_length_b   9.36023189
_cell_length_c   9.92999027
_cell_angle_alpha   90.12586696
_cell_angle_beta   90.10251148
_cell_angle_gamma   60.06462286
_symmetry_Int_Tables_number   1
_chemical_formula_structural   Al11BN12
_chemical_formula_sum   'Al33 B3 N36'
_cell_volume   750.30823114
_cell_formula_units_Z   3
loop_
 _symmetry_equiv_pos_site_id
 _symmetry_equiv_pos_as_xyz
  1  'x, y, z'
loop_
 _atom_site_type_symbol
 _atom_site_label
 _atom_site_symmetry_multiplicity
 _atom_site_fract_x
 _atom_site_fract_y
 _atom_site_fract_z
 _atom_site_occupancy
  Al  Al0  1  0.10414716  0.09885951  0.39709112  1
  Al  Al1  1  0.22205070  0.20285102  0.13728495  1
  Al  Al2  1  0.78176387  0.09100132  0.87272822  1
  Al  Al3  1  0.44543276  0.09586746  0.38484941  1
  Al  Al4  1  0.55926409  0.20416217  0.13502684  1
  Al  Al5  1  0.10965238  0.09731849  0.87302230  1
  Al  Al6  1  0.21405171  0.21020321  0.63726783  1
  Al  Al7  1  0.78233020  0.09919049  0.39759669  1
  Al  Al8  1  0.88921172  0.20476988  0.13312688  1
  Al  Al9  1  0.44230174  0.09277752  0.86545910  1
  Al  Al10  1  0.56432287  0.20962735  0.63744372  1
  Al  Al11  1  0.11168204  0.42688279  0.38512756  1
  Al  Al12  1  0.22205050  0.54115909  0.13803627  1
  Al  Al13  1  0.77720277  0.42820184  0.87469222  1
  Al  Al14  1  0.89470082  0.53215153  0.63952977  1
  Al  Al15  1  0.44220513  0.42764708  0.38989211  1
  Al  Al16  1  0.55149115  0.54941751  0.06948213  1
  Al  Al17  1  0.11078266  0.42584866  0.89358097  1
  Al  Al18  1  0.21744799  0.53572143  0.64079927  1
  Al  Al19  1  0.78574622  0.42110497  0.39310145  1
  Al  Al20  1  0.88573204  0.54033152  0.13745078  1
  Al  Al21  1  0.44085342  0.42940362  0.88336805  1
  Al  Al22  1  0.55599579  0.54106769  0.58567136  1
  Al  Al23  1  0.10349816  0.76176908  0.39642508  1
  Al  Al24  1  0.22979089  0.86945148  0.06374725  1
  Al  Al25  1  0.77779901  0.75489119  0.87961993  1
  Al  Al26  1  0.44310571  0.76168827  0.32811844  1
  Al  Al27  1  0.54899520  0.87138910  0.06764489  1
  Al  Al28  1  0.11408812  0.75478983  0.87773195  1
  Al  Al29  1  0.21190926  0.87700691  0.59982797  1
  Al  Al30  1  0.78701151  0.76088422  0.39289192  1
  Al  Al31  1  0.88810503  0.87486551  0.13664890  1
  Al  Al32  1  0.55684595  0.87185052  0.58859200  1
  B  B33  1  0.88475641  0.20734528  0.64251380  1
  B  B34  1  0.91042201  0.82666319  0.65629822  1
  B  B35  1  0.44469937  0.75911357  0.81264428  1
  N  N36  1  0.22129342  0.20209370  0.33118708  1
  N  N37  1  0.10827328  0.09834128  0.06922672  1
  N  N38  1  0.88670051  0.20627500  0.80781917  1
  N  N39  1  0.78548715  0.12530244  0.58463139  1
  N  N40  1  0.55888881  0.20572950  0.33006056  1
  N  N41  1  0.44352796  0.09715326  0.08217700  1
  N  N42  1  0.21821680  0.21046093  0.82650567  1
  N  N43  1  0.08117156  0.11342937  0.59300790  1
  N  N44  1  0.89094168  0.20595657  0.32288797  1
  N  N45  1  0.78134550  0.09185464  0.06774311  1
  N  N46  1  0.55701975  0.20625380  0.82777359  1
  N  N47  1  0.44249555  0.10139751  0.59196663  1
  N  N48  1  0.22002434  0.54295019  0.32999378  1
  N  N49  1  0.11077754  0.42751904  0.08379858  1
  N  N50  1  0.89273654  0.53565540  0.82774015  1
  N  N51  1  0.79259002  0.40875938  0.59069664  1
  N  N52  1  0.55618127  0.54399471  0.38436621  1
  N  N53  1  0.44352951  0.42688297  0.07861729  1
  N  N54  1  0.22018831  0.53424406  0.82935067  1
  N  N55  1  0.11077755  0.42690568  0.57486061  1
  N  N56  1  0.88722879  0.54110568  0.33050000  1
  N  N57  1  0.78210723  0.42477273  0.07175953  1
  N  N58  1  0.53889283  0.56853332  0.86736690  1
  N  N59  1  0.43479525  0.43164698  0.58423691  1
  N  N60  1  0.22697629  0.86801631  0.39755575  1
  N  N61  1  0.10816055  0.76019204  0.07233383  1
  N  N62  1  0.89036361  0.86455733  0.80785173  1
  N  N63  1  0.79921515  0.76600456  0.59273605  1
  N  N64  1  0.55742201  0.86602797  0.38977785  1
  N  N65  1  0.44170254  0.76422234  0.13704983  1
  N  N66  1  0.24692526  0.85872922  0.86002687  1
  N  N67  1  0.08173195  0.76542664  0.59551117  1
  N  N68  1  0.88722122  0.87791490  0.32838467  1
  N  N69  1  0.78136485  0.76039937  0.07410719  1
  N  N70  1  0.54061417  0.85748909  0.86609068  1
  N  N71  1  0.44411462  0.76171426  0.65217642  1
