# generated using pymatgen
data_Al11BN12
_symmetry_space_group_name_H-M   'P 1'
_cell_length_a   9.30066629
_cell_length_b   9.32292577
_cell_length_c   10.14858029
_cell_angle_alpha   90.02288860
_cell_angle_beta   90.41782861
_cell_angle_gamma   59.55228371
_symmetry_Int_Tables_number   1
_chemical_formula_structural   Al11BN12
_chemical_formula_sum   'Al33 B3 N36'
_cell_volume   758.59581704
_cell_formula_units_Z   3
loop_
 _symmetry_equiv_pos_site_id
 _symmetry_equiv_pos_as_xyz
  1  'x, y, z'
loop_
 _atom_site_type_symbol
 _atom_site_label
 _atom_site_symmetry_multiplicity
 _atom_site_fract_x
 _atom_site_fract_y
 _atom_site_fract_z
 _atom_site_occupancy
  Al  Al0  1  0.12014471  0.08810458  0.32125106  1
  Al  Al1  1  0.22009644  0.20755993  0.07147283  1
  Al  Al2  1  0.77708706  0.08691888  0.80653336  1
  Al  Al3  1  0.44800890  0.09068695  0.32151539  1
  Al  Al4  1  0.55640866  0.20435317  0.06971123  1
  Al  Al5  1  0.12250974  0.08783836  0.82230287  1
  Al  Al6  1  0.21769341  0.21004257  0.56770249  1
  Al  Al7  1  0.77710072  0.08841137  0.32609855  1
  Al  Al8  1  0.88337314  0.21251202  0.14128112  1
  Al  Al9  1  0.44323897  0.09068961  0.82064354  1
  Al  Al10  1  0.56066261  0.19390896  0.57131447  1
  Al  Al11  1  0.11872068  0.42564630  0.32130315  1
  Al  Al12  1  0.22168464  0.53947572  0.07206193  1
  Al  Al13  1  0.77610107  0.43587852  0.88435188  1
  Al  Al14  1  0.88836349  0.54544112  0.64317641  1
  Al  Al15  1  0.44993476  0.42680859  0.32446893  1
  Al  Al16  1  0.54531360  0.54673733  0.06706713  1
  Al  Al17  1  0.12038401  0.42488641  0.82205673  1
  Al  Al18  1  0.21770942  0.54327479  0.56978552  1
  Al  Al19  1  0.79156731  0.41548659  0.40154208  1
  Al  Al20  1  0.87783104  0.54417953  0.14328846  1
  Al  Al21  1  0.44401200  0.43205405  0.82083643  1
  Al  Al22  1  0.55183382  0.53842817  0.58553360  1
  Al  Al23  1  0.11232892  0.76189763  0.32209085  1
  Al  Al24  1  0.22650461  0.86870773  0.06686848  1
  Al  Al25  1  0.77614029  0.75911424  0.88825087  1
  Al  Al26  1  0.44841989  0.75715485  0.32792993  1
  Al  Al27  1  0.54383156  0.87360364  0.07002357  1
  Al  Al28  1  0.10985482  0.76217953  0.81952983  1
  Al  Al29  1  0.20212975  0.88246827  0.57619821  1
  Al  Al30  1  0.78494999  0.75792270  0.39609410  1
  Al  Al31  1  0.89190664  0.87585543  0.07573800  1
  Al  Al32  1  0.54908619  0.87463097  0.58216445  1
  B  B33  1  0.91082582  0.23756428  0.66288841  1
  B  B34  1  0.88372325  0.87137402  0.58900218  1
  B  B35  1  0.44070509  0.76233334  0.81867213  1
  N  N36  1  0.22339535  0.20480464  0.38122306  1
  N  N37  1  0.11789250  0.08891166  0.12677851  1
  N  N38  1  0.88164053  0.22025187  0.80919159  1
  N  N39  1  0.78037334  0.04974021  0.62585644  1
  N  N40  1  0.55480742  0.20446520  0.38358647  1
  N  N41  1  0.44460795  0.09368737  0.13165932  1
  N  N42  1  0.22135057  0.20640534  0.88423628  1
  N  N43  1  0.09211000  0.11316694  0.63092647  1
  N  N44  1  0.88871266  0.20877723  0.33017778  1
  N  N45  1  0.77316703  0.09339564  0.13279245  1
  N  N46  1  0.55706023  0.20481236  0.88000497  1
  N  N47  1  0.43624894  0.09591225  0.63435367  1
  N  N48  1  0.22526998  0.53864230  0.38262198  1
  N  N49  1  0.11433449  0.42737432  0.13187902  1
  N  N50  1  0.88612951  0.54333207  0.82905077  1
  N  N51  1  0.80111929  0.40280950  0.59366737  1
  N  N52  1  0.55551881  0.53914088  0.39534350  1
  N  N53  1  0.44729098  0.42766449  0.13285061  1
  N  N54  1  0.22258929  0.54046165  0.88317809  1
  N  N55  1  0.11959278  0.42563705  0.63158692  1
  N  N56  1  0.88276764  0.53952003  0.33439408  1
  N  N57  1  0.78117359  0.42528719  0.07158788  1
  N  N58  1  0.53571303  0.56924356  0.87307922  1
  N  N59  1  0.44595912  0.42267081  0.63429327  1
  N  N60  1  0.22445817  0.87067281  0.38924804  1
  N  N61  1  0.11620178  0.76074470  0.13211947  1
  N  N62  1  0.89367870  0.87787675  0.88657975  1
  N  N63  1  0.79082489  0.76549068  0.58891640  1
  N  N64  1  0.54975938  0.87313183  0.39034384  1
  N  N65  1  0.44484391  0.75909367  0.13965340  1
  N  N66  1  0.24326492  0.86010030  0.87301343  1
  N  N67  1  0.08122987  0.77367082  0.62898650  1
  N  N68  1  0.89516669  0.87059975  0.37670432  1
  N  N69  1  0.77586412  0.75916025  0.08022700  1
  N  N70  1  0.53509498  0.86254850  0.87456881  1
  N  N71  1  0.43720100  0.76333953  0.65455970  1
