# generated using pymatgen
data_Al11BN12
_symmetry_space_group_name_H-M   'P 1'
_cell_length_a   9.29443971
_cell_length_b   9.28223827
_cell_length_c   9.98705586
_cell_angle_alpha   89.96939649
_cell_angle_beta   90.30566539
_cell_angle_gamma   60.03087626
_symmetry_Int_Tables_number   1
_chemical_formula_structural   Al11BN12
_chemical_formula_sum   'Al33 B3 N36'
_cell_volume   746.39708374
_cell_formula_units_Z   3
loop_
 _symmetry_equiv_pos_site_id
 _symmetry_equiv_pos_as_xyz
  1  'x, y, z'
loop_
 _atom_site_type_symbol
 _atom_site_label
 _atom_site_symmetry_multiplicity
 _atom_site_fract_x
 _atom_site_fract_y
 _atom_site_fract_z
 _atom_site_occupancy
  Al  Al0  1  0.11377587  0.09126087  0.31446209  1
  Al  Al1  1  0.21783692  0.20736491  0.06139833  1
  Al  Al2  1  0.78295201  0.08936576  0.79986770  1
  Al  Al3  1  0.44760241  0.09176305  0.31136509  1
  Al  Al4  1  0.55819909  0.20420392  0.06184600  1
  Al  Al5  1  0.10929511  0.09301481  0.80588276  1
  Al  Al6  1  0.21663097  0.20735994  0.55924236  1
  Al  Al7  1  0.78150528  0.09415537  0.32070889  1
  Al  Al8  1  0.88833771  0.20303478  0.06014592  1
  Al  Al9  1  0.44202425  0.09070134  0.81170414  1
  Al  Al10  1  0.56197715  0.20271189  0.56074187  1
  Al  Al11  1  0.11998528  0.42413249  0.31214911  1
  Al  Al12  1  0.21886295  0.54065129  0.06143485  1
  Al  Al13  1  0.77259481  0.42991590  0.84857280  1
  Al  Al14  1  0.88645487  0.54479422  0.62863048  1
  Al  Al15  1  0.44861696  0.42829596  0.31057951  1
  Al  Al16  1  0.54816782  0.54635597  0.05609696  1
  Al  Al17  1  0.11751899  0.42385940  0.81116888  1
  Al  Al18  1  0.21734867  0.54256438  0.55877025  1
  Al  Al19  1  0.78428057  0.42476193  0.38986240  1
  Al  Al20  1  0.87661448  0.54364849  0.13385832  1
  Al  Al21  1  0.44083329  0.43208983  0.81152165  1
  Al  Al22  1  0.55066280  0.53991846  0.57441839  1
  Al  Al23  1  0.11502843  0.76233887  0.31445536  1
  Al  Al24  1  0.22353391  0.87096815  0.05645464  1
  Al  Al25  1  0.77438342  0.75678895  0.87444878  1
  Al  Al26  1  0.44842598  0.75918887  0.31414060  1
  Al  Al27  1  0.54329071  0.87380226  0.05912106  1
  Al  Al28  1  0.10842419  0.76271913  0.80539579  1
  Al  Al29  1  0.21470236  0.87617340  0.56485490  1
  Al  Al30  1  0.78473614  0.76036352  0.38826809  1
  Al  Al31  1  0.89005274  0.87663638  0.06224587  1
  Al  Al32  1  0.55299770  0.87643445  0.57326991  1
  B  B33  1  0.90124760  0.18667715  0.55492331  1
  B  B34  1  0.90033980  0.87681488  0.55319666  1
  B  B35  1  0.43953701  0.76362767  0.80696359  1
  N  N36  1  0.22482059  0.20355723  0.37024314  1
  N  N37  1  0.10970625  0.09279446  0.12250356  1
  N  N38  1  0.89026617  0.19797771  0.86865277  1
  N  N39  1  0.80304493  0.08200259  0.60588584  1
  N  N40  1  0.55686681  0.20550668  0.37108982  1
  N  N41  1  0.44320193  0.09455790  0.11946278  1
  N  N42  1  0.21977122  0.20396237  0.87054283  1
  N  N43  1  0.08739203  0.10567740  0.61383449  1
  N  N44  1  0.89945321  0.19364283  0.39287196  1
  N  N45  1  0.77900030  0.09414457  0.12971398  1
  N  N46  1  0.55931544  0.20267874  0.86822129  1
  N  N47  1  0.44146752  0.09854273  0.62267532  1
  N  N48  1  0.22584485  0.53886542  0.36986724  1
  N  N49  1  0.11185962  0.42747914  0.12057857  1
  N  N50  1  0.88599521  0.54082649  0.81875240  1
  N  N51  1  0.78869029  0.40545549  0.59157875  1
  N  N52  1  0.55288636  0.54143071  0.38020244  1
  N  N53  1  0.44406692  0.42885120  0.11847089  1
  N  N54  1  0.21952462  0.54147839  0.87071962  1
  N  N55  1  0.11706689  0.42517042  0.61822813  1
  N  N56  1  0.88659227  0.54129321  0.33015321  1
  N  N57  1  0.77399377  0.42935788  0.07939014  1
  N  N58  1  0.53587568  0.56726978  0.85979511  1
  N  N59  1  0.44114751  0.42684450  0.62277344  1
  N  N60  1  0.22863599  0.86986052  0.37573921  1
  N  N61  1  0.11049906  0.76298012  0.12308789  1
  N  N62  1  0.89090313  0.87526619  0.87076752  1
  N  N63  1  0.79125474  0.77559954  0.58293069  1
  N  N64  1  0.55298240  0.87324096  0.37781372  1
  N  N65  1  0.44070416  0.76151807  0.12551208  1
  N  N66  1  0.24204968  0.86125434  0.85996924  1
  N  N67  1  0.08771104  0.77320887  0.61304607  1
  N  N68  1  0.90047011  0.87611616  0.38954711  1
  N  N69  1  0.77390833  0.76139260  0.07339532  1
  N  N70  1  0.53528718  0.86167449  0.86272804  1
  N  N71  1  0.44072854  0.76417905  0.64237207  1
