# generated using pymatgen
data_Al11BN12
_symmetry_space_group_name_H-M   'P 1'
_cell_length_a   9.28858743
_cell_length_b   9.34264160
_cell_length_c   9.95921809
_cell_angle_alpha   90.30585764
_cell_angle_beta   89.89121724
_cell_angle_gamma   60.09006553
_symmetry_Int_Tables_number   1
_chemical_formula_structural   Al11BN12
_chemical_formula_sum   'Al33 B3 N36'
_cell_volume   749.12876027
_cell_formula_units_Z   3
loop_
 _symmetry_equiv_pos_site_id
 _symmetry_equiv_pos_as_xyz
  1  'x, y, z'
loop_
 _atom_site_type_symbol
 _atom_site_label
 _atom_site_symmetry_multiplicity
 _atom_site_fract_x
 _atom_site_fract_y
 _atom_site_fract_z
 _atom_site_occupancy
  Al  Al0  1  0.10285437  0.10075251  0.39507889  1
  Al  Al1  1  0.22207546  0.20202028  0.13670624  1
  Al  Al2  1  0.78057237  0.09220065  0.87099606  1
  Al  Al3  1  0.44521762  0.09564790  0.39168735  1
  Al  Al4  1  0.55921055  0.20218271  0.13523857  1
  Al  Al5  1  0.10906743  0.09821581  0.87152532  1
  Al  Al6  1  0.21567506  0.21024911  0.63829944  1
  Al  Al7  1  0.78120989  0.09886744  0.39644498  1
  Al  Al8  1  0.89085213  0.20242782  0.13261209  1
  Al  Al9  1  0.44122595  0.09601970  0.87980545  1
  Al  Al10  1  0.56195125  0.21213729  0.63750537  1
  Al  Al11  1  0.11187469  0.42577352  0.38508148  1
  Al  Al12  1  0.22145905  0.54109265  0.13765692  1
  Al  Al13  1  0.77250699  0.43150993  0.88207286  1
  Al  Al14  1  0.89389498  0.53182013  0.63915363  1
  Al  Al15  1  0.44465681  0.42780315  0.38833312  1
  Al  Al16  1  0.56021449  0.53168603  0.13978384  1
  Al  Al17  1  0.11152067  0.42617326  0.89162652  1
  Al  Al18  1  0.21980877  0.53576003  0.63939007  1
  Al  Al19  1  0.77962193  0.42358979  0.39280614  1
  Al  Al20  1  0.88738201  0.53901947  0.13811986  1
  Al  Al21  1  0.44479399  0.43311969  0.88871388  1
  Al  Al22  1  0.55799211  0.53560098  0.64022258  1
  Al  Al23  1  0.10237223  0.76044853  0.39508255  1
  Al  Al24  1  0.23334435  0.86687763  0.05985609  1
  Al  Al25  1  0.77726161  0.75509106  0.87852207  1
  Al  Al26  1  0.43994466  0.76666869  0.32903770  1
  Al  Al27  1  0.55264433  0.86768273  0.07571929  1
  Al  Al28  1  0.11493165  0.75429055  0.87638377  1
  Al  Al29  1  0.20845482  0.87979689  0.59379672  1
  Al  Al30  1  0.78545428  0.76080331  0.39417492  1
  Al  Al31  1  0.88942924  0.87424091  0.13606190  1
  Al  Al32  1  0.55781429  0.87583719  0.60185465  1
  B  B33  1  0.88362719  0.20742654  0.64107048  1
  B  B34  1  0.91116061  0.82572348  0.65626861  1
  B  B35  1  0.44038411  0.76608097  0.80589852  1
  N  N36  1  0.22322709  0.20060741  0.32900133  1
  N  N37  1  0.10901711  0.09740777  0.06710094  1
  N  N38  1  0.88495357  0.20924346  0.80677633  1
  N  N39  1  0.78403609  0.12664975  0.58372866  1
  N  N40  1  0.55784909  0.20353570  0.32841016  1
  N  N41  1  0.44359334  0.09638165  0.07479615  1
  N  N42  1  0.22069416  0.20921604  0.82620200  1
  N  N43  1  0.07903423  0.11673273  0.59132854  1
  N  N44  1  0.89035940  0.20568260  0.32197499  1
  N  N45  1  0.78123421  0.09091030  0.06640820  1
  N  N46  1  0.55473617  0.20850252  0.82764700  1
  N  N47  1  0.44156872  0.10586975  0.58507478  1
  N  N48  1  0.22031789  0.54167356  0.32924370  1
  N  N49  1  0.11192821  0.42616337  0.08199451  1
  N  N50  1  0.89234044  0.53448744  0.82784744  1
  N  N51  1  0.78499504  0.41586730  0.58534902  1
  N  N52  1  0.55997552  0.53274179  0.33299358  1
  N  N53  1  0.44510979  0.42676631  0.07937730  1
  N  N54  1  0.22392791  0.53316487  0.82821156  1
  N  N55  1  0.11160771  0.42673724  0.57490634  1
  N  N56  1  0.88728460  0.54023750  0.33075090  1
  N  N57  1  0.77898717  0.42570460  0.07388504  1
  N  N58  1  0.54444907  0.55951821  0.83240839  1
  N  N59  1  0.43839734  0.43618422  0.57842442  1
  N  N60  1  0.22404865  0.86889798  0.39580902  1
  N  N61  1  0.10922762  0.75924650  0.07056471  1
  N  N62  1  0.89112703  0.86450898  0.80725255  1
  N  N63  1  0.79925904  0.76640262  0.59328404  1
  N  N64  1  0.55783676  0.86607245  0.38674405  1
  N  N65  1  0.44054444  0.76541739  0.13568350  1
  N  N66  1  0.24891665  0.85804866  0.85959809  1
  N  N67  1  0.08164874  0.76537499  0.59422947  1
  N  N68  1  0.88676570  0.87692994  0.32747404  1
  N  N69  1  0.78294840  0.75881267  0.07293418  1
  N  N70  1  0.54244264  0.85974703  0.85436525  1
  N  N71  1  0.43579077  0.77113345  0.64531819  1
