# generated using pymatgen
data_Al11BN12
_symmetry_space_group_name_H-M   'P 1'
_cell_length_a   9.32634725
_cell_length_b   9.36671709
_cell_length_c   9.94525819
_cell_angle_alpha   90.15996719
_cell_angle_beta   90.20649243
_cell_angle_gamma   60.02671620
_symmetry_Int_Tables_number   1
_chemical_formula_structural   Al11BN12
_chemical_formula_sum   'Al33 B3 N36'
_cell_volume   752.59170543
_cell_formula_units_Z   3
loop_
 _symmetry_equiv_pos_site_id
 _symmetry_equiv_pos_as_xyz
  1  'x, y, z'
loop_
 _atom_site_type_symbol
 _atom_site_label
 _atom_site_symmetry_multiplicity
 _atom_site_fract_x
 _atom_site_fract_y
 _atom_site_fract_z
 _atom_site_occupancy
  Al  Al0  1  0.10438477  0.09882229  0.39838283  1
  Al  Al1  1  0.21572363  0.20581954  0.13765529  1
  Al  Al2  1  0.78278988  0.09089155  0.87409756  1
  Al  Al3  1  0.45110313  0.08528661  0.32711843  1
  Al  Al4  1  0.56243345  0.20633514  0.13286307  1
  Al  Al5  1  0.10986812  0.09754925  0.87419847  1
  Al  Al6  1  0.21086970  0.21151286  0.63758174  1
  Al  Al7  1  0.78360456  0.09804737  0.39879340  1
  Al  Al8  1  0.88894737  0.20490058  0.13421116  1
  Al  Al9  1  0.44616011  0.08600686  0.82155426  1
  Al  Al10  1  0.56766894  0.20722780  0.63601090  1
  Al  Al11  1  0.11179495  0.42596733  0.38659986  1
  Al  Al12  1  0.22103649  0.54183118  0.13805548  1
  Al  Al13  1  0.77852106  0.42816240  0.87568031  1
  Al  Al14  1  0.89338425  0.53348627  0.64021687  1
  Al  Al15  1  0.44395896  0.42771423  0.37956895  1
  Al  Al16  1  0.54949132  0.54832456  0.06725076  1
  Al  Al17  1  0.11098225  0.42628051  0.89438131  1
  Al  Al18  1  0.21463325  0.53798048  0.64035312  1
  Al  Al19  1  0.78636675  0.42046166  0.39422351  1
  Al  Al20  1  0.88398851  0.54109912  0.13798922  1
  Al  Al21  1  0.44253361  0.43242356  0.86295660  1
  Al  Al22  1  0.55604880  0.54168901  0.58560959  1
  Al  Al23  1  0.10305610  0.76239228  0.39752559  1
  Al  Al24  1  0.23027353  0.86870406  0.06427730  1
  Al  Al25  1  0.77731729  0.75591492  0.88091818  1
  Al  Al26  1  0.44250506  0.76110661  0.32774571  1
  Al  Al27  1  0.54704664  0.87320669  0.06682805  1
  Al  Al28  1  0.11277930  0.75602365  0.87849802  1
  Al  Al29  1  0.21278206  0.87675548  0.60079925  1
  Al  Al30  1  0.78737107  0.76067374  0.39315934  1
  Al  Al31  1  0.88822037  0.87433696  0.13732501  1
  Al  Al32  1  0.55436873  0.87480269  0.58202525  1
  B  B33  1  0.88579466  0.20641606  0.64356652  1
  B  B34  1  0.90858730  0.82956053  0.65591760  1
  B  B35  1  0.44457506  0.76104589  0.81325378  1
  N  N36  1  0.21737315  0.20370828  0.33328111  1
  N  N37  1  0.10771671  0.09765551  0.06962738  1
  N  N38  1  0.88696975  0.20645590  0.80839592  1
  N  N39  1  0.78856036  0.12194427  0.58570979  1
  N  N40  1  0.56295997  0.20522483  0.33322758  1
  N  N41  1  0.44793624  0.08825934  0.12596724  1
  N  N42  1  0.21679273  0.21149100  0.83020834  1
  N  N43  1  0.08113277  0.11296050  0.59397430  1
  N  N44  1  0.89099750  0.20560014  0.32381544  1
  N  N45  1  0.78304453  0.09079995  0.06819738  1
  N  N46  1  0.55951573  0.20509194  0.83175367  1
  N  N47  1  0.44517354  0.09456574  0.62385646  1
  N  N48  1  0.21838125  0.54352720  0.33165799  1
  N  N49  1  0.10951183  0.42841472  0.08416804  1
  N  N50  1  0.89205157  0.53690261  0.82819212  1
  N  N51  1  0.79304611  0.40824295  0.59101315  1
  N  N52  1  0.55578381  0.54462805  0.38698311  1
  N  N53  1  0.44320927  0.42840849  0.08674751  1
  N  N54  1  0.21705045  0.53664380  0.82942681  1
  N  N55  1  0.11007034  0.42726292  0.57576218  1
  N  N56  1  0.88655365  0.54113642  0.33101902  1
  N  N57  1  0.78138051  0.42466415  0.07183798  1
  N  N58  1  0.53960091  0.57014976  0.86722597  1
  N  N59  1  0.43672859  0.43268263  0.59687424  1
  N  N60  1  0.22723430  0.86778321  0.39827299  1
  N  N61  1  0.10754163  0.76087179  0.07266626  1
  N  N62  1  0.88936742  0.86536617  0.80799502  1
  N  N63  1  0.79817778  0.76703921  0.59196765  1
  N  N64  1  0.55570363  0.86859404  0.38930610  1
  N  N65  1  0.44227416  0.76272577  0.13705042  1
  N  N66  1  0.24680167  0.85889342  0.86019888  1
  N  N67  1  0.08073139  0.76706975  0.59561150  1
  N  N68  1  0.88726104  0.87746515  0.32863597  1
  N  N69  1  0.78078884  0.76086604  0.07463387  1
  N  N70  1  0.53849195  0.86043317  0.87119515  1
  N  N71  1  0.44556247  0.76289779  0.65260100  1
