# generated using pymatgen
data_Al11BN12
_symmetry_space_group_name_H-M   'P 1'
_cell_length_a   9.32668355
_cell_length_b   9.33783300
_cell_length_c   9.99244843
_cell_angle_alpha   90.03733363
_cell_angle_beta   90.59345083
_cell_angle_gamma   59.95166285
_symmetry_Int_Tables_number   1
_chemical_formula_structural   Al11BN12
_chemical_formula_sum   'Al33 B3 N36'
_cell_volume   753.24263560
_cell_formula_units_Z   3
loop_
 _symmetry_equiv_pos_site_id
 _symmetry_equiv_pos_as_xyz
  1  'x, y, z'
loop_
 _atom_site_type_symbol
 _atom_site_label
 _atom_site_symmetry_multiplicity
 _atom_site_fract_x
 _atom_site_fract_y
 _atom_site_fract_z
 _atom_site_occupancy
  Al  Al0  1  0.10243457  0.09657704  0.39815415  1
  Al  Al1  1  0.22530846  0.20167996  0.07256914  1
  Al  Al2  1  0.78013117  0.09399311  0.87888470  1
  Al  Al3  1  0.44666663  0.09185594  0.32673370  1
  Al  Al4  1  0.55249747  0.20722675  0.07185663  1
  Al  Al5  1  0.10906275  0.09371522  0.87000686  1
  Al  Al6  1  0.22065831  0.20542360  0.58825093  1
  Al  Al7  1  0.78929919  0.08785047  0.40008758  1
  Al  Al8  1  0.89052085  0.20284463  0.13762476  1
  Al  Al9  1  0.44365421  0.09008135  0.82162564  1
  Al  Al10  1  0.55943213  0.20386573  0.58164098  1
  Al  Al11  1  0.10742092  0.42869360  0.38942868  1
  Al  Al12  1  0.22394331  0.54263453  0.07265022  1
  Al  Al13  1  0.77569647  0.42975390  0.88050899  1
  Al  Al14  1  0.88919449  0.53904427  0.64206568  1
  Al  Al15  1  0.44808940  0.42647516  0.32583064  1
  Al  Al16  1  0.54871593  0.54604790  0.07008262  1
  Al  Al17  1  0.10339617  0.43276797  0.88461352  1
  Al  Al18  1  0.21927973  0.54561857  0.58005147  1
  Al  Al19  1  0.78464928  0.41936592  0.39569771  1
  Al  Al20  1  0.88558777  0.54025602  0.14019944  1
  Al  Al21  1  0.44202281  0.43387537  0.82221082  1
  Al  Al22  1  0.55613913  0.53665839  0.58354999  1
  Al  Al23  1  0.11413761  0.76265415  0.34538699  1
  Al  Al24  1  0.22872366  0.86468424  0.06276861  1
  Al  Al25  1  0.77460969  0.76118351  0.88179822  1
  Al  Al26  1  0.44439232  0.76159574  0.32811932  1
  Al  Al27  1  0.54764575  0.87170795  0.07004131  1
  Al  Al28  1  0.11355172  0.76040320  0.82419445  1
  Al  Al29  1  0.21758049  0.87296462  0.59582278  1
  Al  Al30  1  0.78562357  0.76214656  0.39707372  1
  Al  Al31  1  0.88577209  0.87497387  0.13790580  1
  Al  Al32  1  0.55644341  0.87365065  0.58352640  1
  B  B33  1  0.89377197  0.19967827  0.64989814  1
  B  B34  1  0.88902472  0.87629330  0.65173528  1
  B  B35  1  0.44523335  0.76049576  0.81702795  1
  N  N36  1  0.22645069  0.19945953  0.38434734  1
  N  N37  1  0.10542403  0.09315077  0.07176099  1
  N  N38  1  0.88401735  0.20791480  0.80954322  1
  N  N39  1  0.80400015  0.07998003  0.59607488  1
  N  N40  1  0.55560888  0.20546823  0.38769629  1
  N  N41  1  0.44682826  0.09183441  0.13386958  1
  N  N42  1  0.22437813  0.20635301  0.87015797  1
  N  N43  1  0.08303305  0.10858640  0.60125057  1
  N  N44  1  0.88856234  0.20337150  0.32768317  1
  N  N45  1  0.78502641  0.09092385  0.07277753  1
  N  N46  1  0.54664856  0.21067217  0.87897543  1
  N  N47  1  0.44603866  0.09402155  0.63505403  1
  N  N48  1  0.22644697  0.54015875  0.38445487  1
  N  N49  1  0.10628488  0.43012835  0.08592282  1
  N  N50  1  0.88413756  0.54148257  0.82813610  1
  N  N51  1  0.79455873  0.39790104  0.59071464  1
  N  N52  1  0.55250175  0.54205739  0.38967121  1
  N  N53  1  0.44718828  0.42733955  0.13367475  1
  N  N54  1  0.22269948  0.54157917  0.87721343  1
  N  N55  1  0.10564309  0.43200385  0.58895278  1
  N  N56  1  0.88435838  0.54103506  0.33325188  1
  N  N57  1  0.78158912  0.42357102  0.07509662  1
  N  N58  1  0.53734565  0.56744504  0.87412614  1
  N  N59  1  0.44369030  0.42815516  0.63508417  1
  N  N60  1  0.22817132  0.86762405  0.39870844  1
  N  N61  1  0.11342507  0.76294049  0.11527757  1
  N  N62  1  0.87696784  0.87797245  0.81293846  1
  N  N63  1  0.79529855  0.77446631  0.59130442  1
  N  N64  1  0.55297577  0.87154503  0.39014755  1
  N  N65  1  0.44325416  0.76166190  0.13840457  1
  N  N66  1  0.24788964  0.85743444  0.86333471  1
  N  N67  1  0.08976028  0.77135692  0.62871987  1
  N  N68  1  0.88485650  0.87568595  0.32911060  1
  N  N69  1  0.78073135  0.76090698  0.07531303  1
  N  N70  1  0.53613900  0.86193905  0.87451623  1
  N  N71  1  0.44963625  0.75863667  0.65452633  1
