# generated using pymatgen
data_Al11BN12
_symmetry_space_group_name_H-M   'P 1'
_cell_length_a   9.26707924
_cell_length_b   9.33061666
_cell_length_c   9.98974496
_cell_angle_alpha   90.24046031
_cell_angle_beta   89.74413479
_cell_angle_gamma   60.04577978
_symmetry_Int_Tables_number   1
_chemical_formula_structural   Al11BN12
_chemical_formula_sum   'Al33 B3 N36'
_cell_volume   748.37993885
_cell_formula_units_Z   3
loop_
 _symmetry_equiv_pos_site_id
 _symmetry_equiv_pos_as_xyz
  1  'x, y, z'
loop_
 _atom_site_type_symbol
 _atom_site_label
 _atom_site_symmetry_multiplicity
 _atom_site_fract_x
 _atom_site_fract_y
 _atom_site_fract_z
 _atom_site_occupancy
  Al  Al0  1  0.10278229  0.10182185  0.39773514  1
  Al  Al1  1  0.22160954  0.20258735  0.13881477  1
  Al  Al2  1  0.77987286  0.09163104  0.87268738  1
  Al  Al3  1  0.44609348  0.09520597  0.39107799  1
  Al  Al4  1  0.55957035  0.20379778  0.13717742  1
  Al  Al5  1  0.10890369  0.09879549  0.87219849  1
  Al  Al6  1  0.21776063  0.20840778  0.63990970  1
  Al  Al7  1  0.78154204  0.09936460  0.39798523  1
  Al  Al8  1  0.89210098  0.20196244  0.13395857  1
  Al  Al9  1  0.44329586  0.09021370  0.88987020  1
  Al  Al10  1  0.56177055  0.20902207  0.63878894  1
  Al  Al11  1  0.11121344  0.42690596  0.38759186  1
  Al  Al12  1  0.22167152  0.54196856  0.13889997  1
  Al  Al13  1  0.77207066  0.43181477  0.88407436  1
  Al  Al14  1  0.89243405  0.53297104  0.64163522  1
  Al  Al15  1  0.44450414  0.42784211  0.39038751  1
  Al  Al16  1  0.56035588  0.53240983  0.14053103  1
  Al  Al17  1  0.11124494  0.42607106  0.89300752  1
  Al  Al18  1  0.21893837  0.53595430  0.64154197  1
  Al  Al19  1  0.78043649  0.42335781  0.39474649  1
  Al  Al20  1  0.88777443  0.53900789  0.14057548  1
  Al  Al21  1  0.44448091  0.43205563  0.88964991  1
  Al  Al22  1  0.55844794  0.53302475  0.64037311  1
  Al  Al23  1  0.10189293  0.76092789  0.39748297  1
  Al  Al24  1  0.23765846  0.86588938  0.05754154  1
  Al  Al25  1  0.77096830  0.75746352  0.88861760  1
  Al  Al26  1  0.43605903  0.76483163  0.32937917  1
  Al  Al27  1  0.56049360  0.87481757  0.14240422  1
  Al  Al28  1  0.11321904  0.75467711  0.87706211  1
  Al  Al29  1  0.20777779  0.87962609  0.59559918  1
  Al  Al30  1  0.78206983  0.76434710  0.39504609  1
  Al  Al31  1  0.89200592  0.87441875  0.13776581  1
  Al  Al32  1  0.55955955  0.87863716  0.64330267  1
  B  B33  1  0.88354408  0.20773924  0.64264317  1
  B  B34  1  0.90733121  0.82812662  0.65688477  1
  B  B35  1  0.43964714  0.76335185  0.80375375  1
  N  N36  1  0.22221879  0.20220891  0.33088215  1
  N  N37  1  0.11029169  0.09703024  0.06715960  1
  N  N38  1  0.88417343  0.20933607  0.80818434  1
  N  N39  1  0.78474202  0.12460571  0.58548287  1
  N  N40  1  0.55826880  0.20516423  0.32987050  1
  N  N41  1  0.44588052  0.09330349  0.08052342  1
  N  N42  1  0.22351476  0.20777296  0.82802233  1
  N  N43  1  0.07936103  0.11662168  0.59352457  1
  N  N44  1  0.89103250  0.20589300  0.32326902  1
  N  N45  1  0.78177453  0.09117090  0.06776132  1
  N  N46  1  0.55330761  0.20604890  0.82923079  1
  N  N47  1  0.44538618  0.09693950  0.58115849  1
  N  N48  1  0.22023343  0.54250256  0.33049600  1
  N  N49  1  0.11233101  0.42649359  0.08323259  1
  N  N50  1  0.89039250  0.53696210  0.83056152  1
  N  N51  1  0.78623611  0.41365607  0.58706481  1
  N  N52  1  0.56047191  0.53272341  0.33540379  1
  N  N53  1  0.44562728  0.42686564  0.07999707  1
  N  N54  1  0.22354435  0.53328098  0.82940388  1
  N  N55  1  0.11153694  0.42615631  0.57725818  1
  N  N56  1  0.88644035  0.54163592  0.33331859  1
  N  N57  1  0.77988263  0.42532904  0.07542934  1
  N  N58  1  0.54394263  0.55957486  0.83228892  1
  N  N59  1  0.43821580  0.43345304  0.58001748  1
  N  N60  1  0.22331836  0.87008392  0.39884226  1
  N  N61  1  0.11057359  0.75969651  0.07028615  1
  N  N62  1  0.88818695  0.86365737  0.80868350  1
  N  N63  1  0.79340301  0.76905138  0.59130574  1
  N  N64  1  0.56131069  0.87335771  0.33861140  1
  N  N65  1  0.44065840  0.76348685  0.13543827  1
  N  N66  1  0.24918803  0.85794582  0.85776640  1
  N  N67  1  0.07964904  0.76554418  0.59574299  1
  N  N68  1  0.88768970  0.87779767  0.32892074  1
  N  N69  1  0.78080829  0.76085898  0.07851804  1
  N  N70  1  0.54496930  0.86272559  0.83394946  1
  N  N71  1  0.43614003  0.76713921  0.64041786  1
