# generated using pymatgen
data_Al11BN12
_symmetry_space_group_name_H-M   'P 1'
_cell_length_a   9.32724162
_cell_length_b   9.36942308
_cell_length_c   9.94670689
_cell_angle_alpha   90.16464996
_cell_angle_beta   90.21222051
_cell_angle_gamma   60.04317410
_symmetry_Int_Tables_number   1
_chemical_formula_structural   Al11BN12
_chemical_formula_sum   'Al33 B3 N36'
_cell_volume   753.11538964
_cell_formula_units_Z   3
loop_
 _symmetry_equiv_pos_site_id
 _symmetry_equiv_pos_as_xyz
  1  'x, y, z'
loop_
 _atom_site_type_symbol
 _atom_site_label
 _atom_site_symmetry_multiplicity
 _atom_site_fract_x
 _atom_site_fract_y
 _atom_site_fract_z
 _atom_site_occupancy
  Al  Al0  1  0.10433313  0.09884689  0.39842165  1
  Al  Al1  1  0.21571817  0.20579338  0.13770798  1
  Al  Al2  1  0.78282744  0.09082254  0.87430819  1
  Al  Al3  1  0.45102064  0.08495471  0.32737054  1
  Al  Al4  1  0.56304776  0.20494445  0.13203791  1
  Al  Al5  1  0.10981343  0.09758565  0.87425839  1
  Al  Al6  1  0.21090614  0.21145856  0.63773723  1
  Al  Al7  1  0.78391797  0.09769792  0.39908440  1
  Al  Al8  1  0.88887443  0.20503616  0.13419940  1
  Al  Al9  1  0.44613755  0.08603692  0.82189322  1
  Al  Al10  1  0.56842587  0.20585124  0.63519315  1
  Al  Al11  1  0.11175105  0.42584573  0.38687846  1
  Al  Al12  1  0.21953111  0.54262664  0.13786304  1
  Al  Al13  1  0.77863252  0.42809316  0.87612365  1
  Al  Al14  1  0.89322017  0.53344471  0.64033104  1
  Al  Al15  1  0.44582089  0.42887446  0.36005969  1
  Al  Al16  1  0.54851571  0.54757931  0.06658285  1
  Al  Al17  1  0.11104272  0.42619633  0.89458965  1
  Al  Al18  1  0.21312276  0.53890410  0.64019072  1
  Al  Al19  1  0.78661451  0.42027318  0.39446422  1
  Al  Al20  1  0.88370262  0.54105710  0.13797652  1
  Al  Al21  1  0.44386469  0.43416708  0.84287033  1
  Al  Al22  1  0.55558644  0.54137606  0.58454446  1
  Al  Al23  1  0.10283552  0.76266079  0.39785720  1
  Al  Al24  1  0.23043724  0.86869358  0.06437952  1
  Al  Al25  1  0.77736469  0.75587059  0.88093812  1
  Al  Al26  1  0.44233815  0.76146197  0.32767323  1
  Al  Al27  1  0.54708964  0.87291543  0.06686353  1
  Al  Al28  1  0.11265057  0.75611672  0.87886437  1
  Al  Al29  1  0.21293482  0.87675350  0.60094296  1
  Al  Al30  1  0.78742621  0.76063529  0.39321241  1
  Al  Al31  1  0.88825446  0.87432022  0.13745764  1
  Al  Al32  1  0.55441457  0.87463752  0.58221201  1
  B  B33  1  0.88584857  0.20638898  0.64362789  1
  B  B34  1  0.90849265  0.82970335  0.65606730  1
  B  B35  1  0.44448437  0.76134981  0.81341650  1
  N  N36  1  0.21733544  0.20371362  0.33331658  1
  N  N37  1  0.10771331  0.09764088  0.06966348  1
  N  N38  1  0.88684653  0.20657133  0.80839243  1
  N  N39  1  0.78899589  0.12166109  0.58579692  1
  N  N40  1  0.56381560  0.20311611  0.33476084  1
  N  N41  1  0.44789725  0.08795753  0.12607444  1
  N  N42  1  0.21675248  0.21147423  0.83023656  1
  N  N43  1  0.08118660  0.11295091  0.59397590  1
  N  N44  1  0.89080722  0.20567888  0.32386733  1
  N  N45  1  0.78347204  0.09050397  0.06830163  1
  N  N46  1  0.55978570  0.20417605  0.83323093  1
  N  N47  1  0.44518934  0.09443592  0.62396050  1
  N  N48  1  0.21668198  0.54440871  0.33272652  1
  N  N49  1  0.10931647  0.42829951  0.08429468  1
  N  N50  1  0.89192414  0.53687041  0.82823310  1
  N  N51  1  0.79296549  0.40832638  0.59082620  1
  N  N52  1  0.55514651  0.54458909  0.38798159  1
  N  N53  1  0.44452590  0.42950187  0.10212407  1
  N  N54  1  0.21569650  0.53733488  0.83055363  1
  N  N55  1  0.11006564  0.42710422  0.57587758  1
  N  N56  1  0.88636677  0.54110555  0.33108337  1
  N  N57  1  0.78120334  0.42466855  0.07182447  1
  N  N58  1  0.53932926  0.57024684  0.86840688  1
  N  N59  1  0.43831375  0.43389317  0.61163271  1
  N  N60  1  0.22722390  0.86784435  0.39832624  1
  N  N61  1  0.10739014  0.76121418  0.07279871  1
  N  N62  1  0.88932289  0.86542686  0.80804828  1
  N  N63  1  0.79823434  0.76701930  0.59201670  1
  N  N64  1  0.55575487  0.86831072  0.38947418  1
  N  N65  1  0.44244935  0.76253423  0.13708893  1
  N  N66  1  0.24676479  0.85896435  0.86020261  1
  N  N67  1  0.08055795  0.76741004  0.59567354  1
  N  N68  1  0.88731293  0.87739805  0.32871762  1
  N  N69  1  0.78084258  0.76084132  0.07467068  1
  N  N70  1  0.53845273  0.86036173  0.87121992  1
  N  N71  1  0.44580979  0.76265744  0.65267070  1
