# generated using pymatgen
data_Al11BN12
_symmetry_space_group_name_H-M   'P 1'
_cell_length_a   9.33430406
_cell_length_b   9.35117670
_cell_length_c   9.97000268
_cell_angle_alpha   90.02321769
_cell_angle_beta   90.54774641
_cell_angle_gamma   59.94224501
_symmetry_Int_Tables_number   1
_chemical_formula_structural   Al11BN12
_chemical_formula_sum   'Al33 B3 N36'
_cell_volume   753.17458123
_cell_formula_units_Z   3
loop_
 _symmetry_equiv_pos_site_id
 _symmetry_equiv_pos_as_xyz
  1  'x, y, z'
loop_
 _atom_site_type_symbol
 _atom_site_label
 _atom_site_symmetry_multiplicity
 _atom_site_fract_x
 _atom_site_fract_y
 _atom_site_fract_z
 _atom_site_occupancy
  Al  Al0  1  0.10282587  0.09626111  0.39837255  1
  Al  Al1  1  0.22529778  0.20195924  0.07246920  1
  Al  Al2  1  0.78059108  0.09326676  0.87834643  1
  Al  Al3  1  0.44629349  0.09206069  0.32658525  1
  Al  Al4  1  0.55281597  0.20696205  0.07205821  1
  Al  Al5  1  0.10896810  0.09437009  0.86879466  1
  Al  Al6  1  0.22072352  0.20508534  0.58809246  1
  Al  Al7  1  0.78851186  0.08889567  0.39863750  1
  Al  Al8  1  0.89033564  0.20290593  0.13741945  1
  Al  Al9  1  0.44384678  0.08998719  0.82165292  1
  Al  Al10  1  0.56010938  0.20323399  0.58125210  1
  Al  Al11  1  0.10771138  0.42895664  0.38949459  1
  Al  Al12  1  0.22454124  0.54087978  0.07121931  1
  Al  Al13  1  0.77542422  0.42992479  0.88041706  1
  Al  Al14  1  0.88852291  0.53927281  0.64168919  1
  Al  Al15  1  0.44673994  0.42776486  0.32607520  1
  Al  Al16  1  0.54858501  0.54616061  0.07011842  1
  Al  Al17  1  0.10340061  0.43172227  0.88308953  1
  Al  Al18  1  0.22095037  0.54129812  0.58619793  1
  Al  Al19  1  0.78477541  0.41933121  0.39535543  1
  Al  Al20  1  0.88547485  0.54049507  0.13993771  1
  Al  Al21  1  0.44377085  0.43269153  0.82160625  1
  Al  Al22  1  0.55660370  0.53646802  0.58305033  1
  Al  Al23  1  0.10541535  0.76656093  0.39072857  1
  Al  Al24  1  0.22961038  0.86667275  0.06250738  1
  Al  Al25  1  0.77498437  0.76127457  0.88137484  1
  Al  Al26  1  0.44329364  0.76170243  0.32838011  1
  Al  Al27  1  0.54804475  0.87174834  0.07032652  1
  Al  Al28  1  0.11041725  0.76245485  0.85320968  1
  Al  Al29  1  0.21866636  0.87439923  0.60244459  1
  Al  Al30  1  0.78497893  0.76213814  0.39555699  1
  Al  Al31  1  0.88996317  0.87315889  0.13713997  1
  Al  Al32  1  0.55673432  0.87359020  0.58295811  1
  B  B33  1  0.89342255  0.20019316  0.64976077  1
  B  B34  1  0.89093895  0.87483614  0.65028494  1
  B  B35  1  0.44591967  0.76066919  0.81609300  1
  N  N36  1  0.22616624  0.19981742  0.38422533  1
  N  N37  1  0.10545351  0.09369943  0.07176092  1
  N  N38  1  0.88362311  0.20815847  0.80971684  1
  N  N39  1  0.80362214  0.08070074  0.59534345  1
  N  N40  1  0.55540286  0.20558845  0.38676331  1
  N  N41  1  0.44656547  0.09200856  0.13353291  1
  N  N42  1  0.22466208  0.20586742  0.87012624  1
  N  N43  1  0.08276795  0.10922704  0.60208648  1
  N  N44  1  0.88888404  0.20349879  0.32767697  1
  N  N45  1  0.78485919  0.09088876  0.07325177  1
  N  N46  1  0.54755939  0.20968761  0.87870245  1
  N  N47  1  0.44609202  0.09389035  0.63464049  1
  N  N48  1  0.22631886  0.54007846  0.38466696  1
  N  N49  1  0.10619536  0.43025226  0.08555756  1
  N  N50  1  0.88375442  0.54160074  0.82818103  1
  N  N51  1  0.79460358  0.39792740  0.59070262  1
  N  N52  1  0.55273960  0.54198838  0.38910023  1
  N  N53  1  0.44636953  0.42801693  0.13327228  1
  N  N54  1  0.22478440  0.53640623  0.87113093  1
  N  N55  1  0.10522304  0.43101093  0.58966217  1
  N  N56  1  0.88457892  0.54086829  0.33325566  1
  N  N57  1  0.78140120  0.42373481  0.07529700  1
  N  N58  1  0.53713877  0.56760442  0.87412347  1
  N  N59  1  0.44585375  0.42679347  0.63453932  1
  N  N60  1  0.22923510  0.86872774  0.39946879  1
  N  N61  1  0.10598405  0.76662469  0.07770964  1
  N  N62  1  0.88017886  0.87633641  0.81027944  1
  N  N63  1  0.79489349  0.77419412  0.59050839  1
  N  N64  1  0.55292586  0.87166230  0.38915223  1
  N  N65  1  0.44258453  0.76183307  0.13818847  1
  N  N66  1  0.24908963  0.85896219  0.85859263  1
  N  N67  1  0.08550565  0.77348001  0.61097575  1
  N  N68  1  0.88848620  0.87409442  0.32819386  1
  N  N69  1  0.78066776  0.76133206  0.07584164  1
  N  N70  1  0.53677668  0.86195365  0.87439593  1
  N  N71  1  0.45172106  0.75763209  0.65409569  1
