# generated using pymatgen
data_Al11BN12
_symmetry_space_group_name_H-M   'P 1'
_cell_length_a   9.27303803
_cell_length_b   9.27073932
_cell_length_c   9.87991621
_cell_angle_alpha   90.11255323
_cell_angle_beta   90.15367714
_cell_angle_gamma   59.93104775
_symmetry_Int_Tables_number   1
_chemical_formula_structural   Al11BN12
_chemical_formula_sum   'Al33 B3 N36'
_cell_volume   735.04928378
_cell_formula_units_Z   3
loop_
 _symmetry_equiv_pos_site_id
 _symmetry_equiv_pos_as_xyz
  1  'x, y, z'
loop_
 _atom_site_type_symbol
 _atom_site_label
 _atom_site_symmetry_multiplicity
 _atom_site_fract_x
 _atom_site_fract_y
 _atom_site_fract_z
 _atom_site_occupancy
  Al  Al0  1  0.11119937  0.09270290  0.31824573  1
  Al  Al1  1  0.22063234  0.20528210  0.06346268  1
  Al  Al2  1  0.78249502  0.09179570  0.80420198  1
  Al  Al3  1  0.44596125  0.09235520  0.31240589  1
  Al  Al4  1  0.55917357  0.20372433  0.06331872  1
  Al  Al5  1  0.10897698  0.09456602  0.80909271  1
  Al  Al6  1  0.21718824  0.20652663  0.56202904  1
  Al  Al7  1  0.78081601  0.09312081  0.32625976  1
  Al  Al8  1  0.88788743  0.20464303  0.06551471  1
  Al  Al9  1  0.44192314  0.09135813  0.81364411  1
  Al  Al10  1  0.56090994  0.20238112  0.56348624  1
  Al  Al11  1  0.11219532  0.42728864  0.31489256  1
  Al  Al12  1  0.22075781  0.54086563  0.06330150  1
  Al  Al13  1  0.77601538  0.42659639  0.80876246  1
  Al  Al14  1  0.89051088  0.53760744  0.56629677  1
  Al  Al15  1  0.44575229  0.42805060  0.31246488  1
  Al  Al16  1  0.55462352  0.54319073  0.05920802  1
  Al  Al17  1  0.10960022  0.42858620  0.81261070  1
  Al  Al18  1  0.21684862  0.54327203  0.56208970  1
  Al  Al19  1  0.77814379  0.42505779  0.32332749  1
  Al  Al20  1  0.88597631  0.54074079  0.06974783  1
  Al  Al21  1  0.44201506  0.43315307  0.81325165  1
  Al  Al22  1  0.55716678  0.53506956  0.56895551  1
  Al  Al23  1  0.11130708  0.76298446  0.31802061  1
  Al  Al24  1  0.22593576  0.87052019  0.05840514  1
  Al  Al25  1  0.77593471  0.76360981  0.80822320  1
  Al  Al26  1  0.44544413  0.76059501  0.31491973  1
  Al  Al27  1  0.55491899  0.86861328  0.05934582  1
  Al  Al28  1  0.10887455  0.76334854  0.80928893  1
  Al  Al29  1  0.21424705  0.87626401  0.56884585  1
  Al  Al30  1  0.77833372  0.76356477  0.32514283  1
  Al  Al31  1  0.88762829  0.87414615  0.06573584  1
  Al  Al32  1  0.55681048  0.87369385  0.56957288  1
  B  B33  1  0.89523438  0.19779092  0.55722081  1
  B  B34  1  0.89549526  0.87539111  0.55730252  1
  B  B35  1  0.44526643  0.76044729  0.80782984  1
  N  N36  1  0.22356875  0.20431156  0.37109666  1
  N  N37  1  0.11068104  0.09268345  0.12431879  1
  N  N38  1  0.88717671  0.20473010  0.87477068  1
  N  N39  1  0.80044417  0.08269827  0.60866699  1
  N  N40  1  0.55474589  0.20574161  0.37235230  1
  N  N41  1  0.44569502  0.09256206  0.11874161  1
  N  N42  1  0.21926023  0.20579428  0.87131498  1
  N  N43  1  0.08583139  0.10741150  0.61541152  1
  N  N44  1  0.89205008  0.20335256  0.39387418  1
  N  N45  1  0.77965227  0.09380757  0.13207402  1
  N  N46  1  0.55864117  0.20394636  0.86892316  1
  N  N47  1  0.44134473  0.09685876  0.62302006  1
  N  N48  1  0.22334097  0.53905038  0.37115204  1
  N  N49  1  0.11091577  0.42821962  0.12281259  1
  N  N50  1  0.88527948  0.54057755  0.86802088  1
  N  N51  1  0.78944281  0.40005408  0.61534520  1
  N  N52  1  0.55416725  0.54020695  0.37734286  1
  N  N53  1  0.44568184  0.42865255  0.11882928  1
  N  N54  1  0.21941968  0.54162496  0.87112272  1
  N  N55  1  0.11211065  0.42742778  0.62169004  1
  N  N56  1  0.88999745  0.53802427  0.37492016  1
  N  N57  1  0.77614024  0.42659072  0.12774663  1
  N  N58  1  0.54440116  0.56293966  0.86324366  1
  N  N59  1  0.44145801  0.42809786  0.62259471  1
  N  N60  1  0.22557706  0.87062036  0.37771388  1
  N  N61  1  0.11069082  0.76384787  0.12410755  1
  N  N62  1  0.88691923  0.87425795  0.87485890  1
  N  N63  1  0.78913117  0.77628354  0.61503342  1
  N  N64  1  0.55394119  0.87210377  0.37795146  1
  N  N65  1  0.44428015  0.76138932  0.12465233  1
  N  N66  1  0.24429893  0.86123514  0.86084541  1
  N  N67  1  0.08576997  0.77417720  0.61566057  1
  N  N68  1  0.89244108  0.87174888  0.39414790  1
  N  N69  1  0.77602996  0.76464494  0.12895001  1
  N  N70  1  0.54444409  0.85893271  0.86323686  1
  N  N71  1  0.44459255  0.76060705  0.64231465  1
