# generated using pymatgen
data_Al11BN12
_symmetry_space_group_name_H-M   'P 1'
_cell_length_a   9.29883788
_cell_length_b   9.32492127
_cell_length_c   10.15893604
_cell_angle_alpha   90.03700469
_cell_angle_beta   90.43549346
_cell_angle_gamma   59.55206363
_symmetry_Int_Tables_number   1
_chemical_formula_structural   Al11BN12
_chemical_formula_sum   'Al33 B3 N36'
_cell_volume   759.37996113
_cell_formula_units_Z   3
loop_
 _symmetry_equiv_pos_site_id
 _symmetry_equiv_pos_as_xyz
  1  'x, y, z'
loop_
 _atom_site_type_symbol
 _atom_site_label
 _atom_site_symmetry_multiplicity
 _atom_site_fract_x
 _atom_site_fract_y
 _atom_site_fract_z
 _atom_site_occupancy
  Al  Al0  1  0.12002045  0.08793777  0.32110358  1
  Al  Al1  1  0.22019997  0.20768146  0.07162650  1
  Al  Al2  1  0.77705958  0.08752372  0.80851993  1
  Al  Al3  1  0.44842083  0.09035128  0.32163992  1
  Al  Al4  1  0.55608612  0.20487484  0.06924326  1
  Al  Al5  1  0.12262346  0.08790799  0.82238979  1
  Al  Al6  1  0.21772495  0.20987311  0.56746682  1
  Al  Al7  1  0.77676908  0.08842828  0.32363723  1
  Al  Al8  1  0.88353426  0.21308419  0.14080254  1
  Al  Al9  1  0.44318856  0.09065644  0.82058871  1
  Al  Al10  1  0.56077318  0.19348463  0.57147963  1
  Al  Al11  1  0.11868779  0.42568168  0.32141569  1
  Al  Al12  1  0.22209186  0.53918355  0.07177435  1
  Al  Al13  1  0.77600907  0.43646507  0.88456826  1
  Al  Al14  1  0.88855785  0.54508694  0.64297670  1
  Al  Al15  1  0.45000970  0.42662461  0.32455439  1
  Al  Al16  1  0.54532081  0.54684192  0.06724487  1
  Al  Al17  1  0.12037872  0.42483812  0.82194812  1
  Al  Al18  1  0.21741735  0.54317286  0.56971603  1
  Al  Al19  1  0.79156222  0.41525680  0.40138243  1
  Al  Al20  1  0.87773891  0.54449678  0.14383133  1
  Al  Al21  1  0.44400735  0.43216461  0.82065098  1
  Al  Al22  1  0.55160325  0.53848578  0.58531844  1
  Al  Al23  1  0.11264412  0.76142393  0.32012323  1
  Al  Al24  1  0.22706474  0.86878069  0.06658007  1
  Al  Al25  1  0.77650486  0.75909251  0.88922723  1
  Al  Al26  1  0.44841258  0.75711260  0.32810662  1
  Al  Al27  1  0.54396116  0.87364795  0.07005973  1
  Al  Al28  1  0.11018372  0.76210975  0.82130557  1
  Al  Al29  1  0.20108713  0.88279870  0.57617620  1
  Al  Al30  1  0.78572700  0.75875505  0.39509129  1
  Al  Al31  1  0.89190266  0.87558877  0.07879838  1
  Al  Al32  1  0.54873387  0.87472802  0.58194279  1
  B  B33  1  0.91106540  0.23826082  0.66333415  1
  B  B34  1  0.88250848  0.86963838  0.59990566  1
  B  B35  1  0.44074647  0.76245380  0.81870202  1
  N  N36  1  0.22352507  0.20458538  0.38121238  1
  N  N37  1  0.11819944  0.08890242  0.12678333  1
  N  N38  1  0.88160045  0.22080070  0.80922962  1
  N  N39  1  0.78017894  0.04846806  0.62780508  1
  N  N40  1  0.55531977  0.20418214  0.38391371  1
  N  N41  1  0.44487908  0.09370500  0.13179256  1
  N  N42  1  0.22130429  0.20652701  0.88435576  1
  N  N43  1  0.09185878  0.11332085  0.63107148  1
  N  N44  1  0.88856702  0.20875185  0.32979869  1
  N  N45  1  0.77268241  0.09553563  0.13049427  1
  N  N46  1  0.55644038  0.20522327  0.87975977  1
  N  N47  1  0.43618746  0.09577360  0.63439577  1
  N  N48  1  0.22529301  0.53872807  0.38283442  1
  N  N49  1  0.11439710  0.42749867  0.13210336  1
  N  N50  1  0.88594171  0.54379287  0.82854882  1
  N  N51  1  0.80105256  0.40276903  0.59360415  1
  N  N52  1  0.55545327  0.53909176  0.39543525  1
  N  N53  1  0.44738977  0.42765956  0.13301661  1
  N  N54  1  0.22282120  0.54002308  0.88304789  1
  N  N55  1  0.11966930  0.42534450  0.63155192  1
  N  N56  1  0.88271151  0.53930528  0.33496918  1
  N  N57  1  0.78129952  0.42587037  0.07149296  1
  N  N58  1  0.53559974  0.56938552  0.87316945  1
  N  N59  1  0.44593949  0.42260806  0.63422858  1
  N  N60  1  0.22403468  0.87048542  0.38943897  1
  N  N61  1  0.11831877  0.75990621  0.13039526  1
  N  N62  1  0.89377854  0.87801319  0.88769854  1
  N  N63  1  0.79186111  0.76592514  0.58907641  1
  N  N64  1  0.54998837  0.87277449  0.39096480  1
  N  N65  1  0.44517830  0.75920035  0.13988006  1
  N  N66  1  0.24354581  0.86031177  0.87286499  1
  N  N67  1  0.07971205  0.77387329  0.63035704  1
  N  N68  1  0.89359209  0.86913701  0.36258276  1
  N  N69  1  0.77578920  0.75876907  0.07989864  1
  N  N70  1  0.53516697  0.86262906  0.87446322  1
  N  N71  1  0.43699578  0.76330314  0.65452320  1
