# generated using pymatgen
data_Al11BN12
_symmetry_space_group_name_H-M   'P 1'
_cell_length_a   9.30691374
_cell_length_b   9.29246911
_cell_length_c   10.02242113
_cell_angle_alpha   89.99872268
_cell_angle_beta   90.22523254
_cell_angle_gamma   60.05502363
_symmetry_Int_Tables_number   1
_chemical_formula_structural   Al11BN12
_chemical_formula_sum   'Al33 B3 N36'
_cell_volume   751.06258634
_cell_formula_units_Z   3
loop_
 _symmetry_equiv_pos_site_id
 _symmetry_equiv_pos_as_xyz
  1  'x, y, z'
loop_
 _atom_site_type_symbol
 _atom_site_label
 _atom_site_symmetry_multiplicity
 _atom_site_fract_x
 _atom_site_fract_y
 _atom_site_fract_z
 _atom_site_occupancy
  Al  Al0  1  0.10575381  0.09960415  0.39863238  1
  Al  Al1  1  0.21596218  0.20599689  0.13994402  1
  Al  Al2  1  0.78329052  0.09163612  0.87454959  1
  Al  Al3  1  0.45410863  0.08828850  0.32571170  1
  Al  Al4  1  0.55332154  0.20662317  0.06922249  1
  Al  Al5  1  0.11044496  0.09734575  0.87768993  1
  Al  Al6  1  0.20846735  0.21351850  0.64109790  1
  Al  Al7  1  0.79054399  0.08800994  0.39929252  1
  Al  Al8  1  0.88868119  0.20399652  0.13685167  1
  Al  Al9  1  0.44567737  0.08804150  0.82108295  1
  Al  Al10  1  0.55910256  0.20373341  0.58329910  1
  Al  Al11  1  0.11265755  0.42695537  0.38812303  1
  Al  Al12  1  0.21596139  0.54461120  0.13994390  1
  Al  Al13  1  0.77779961  0.42927942  0.87768298  1
  Al  Al14  1  0.88984621  0.53836001  0.63943177  1
  Al  Al15  1  0.45410809  0.42416804  0.32571156  1
  Al  Al16  1  0.54846747  0.54590278  0.06685769  1
  Al  Al17  1  0.10935835  0.42860345  0.89423829  1
  Al  Al18  1  0.20846696  0.54458686  0.64109855  1
  Al  Al19  1  0.78611360  0.41939795  0.39509274  1
  Al  Al20  1  0.88353210  0.54151753  0.13842919  1
  Al  Al21  1  0.44567698  0.43284459  0.82108345  1
  Al  Al22  1  0.55442067  0.53786778  0.58146705  1
  Al  Al23  1  0.10575377  0.76121149  0.39863109  1
  Al  Al24  1  0.23186305  0.86735331  0.06445536  1
  Al  Al25  1  0.77780066  0.75948261  0.87768221  1
  Al  Al26  1  0.44317451  0.76169549  0.32714682  1
  Al  Al27  1  0.54846924  0.87219646  0.06685805  1
  Al  Al28  1  0.11044496  0.75877505  0.87768935  1
  Al  Al29  1  0.21737685  0.87459769  0.59746254  1
  Al  Al30  1  0.78611357  0.76105258  0.39509262  1
  Al  Al31  1  0.88868132  0.87389028  0.13685161  1
  Al  Al32  1  0.55442029  0.87427970  0.58146775  1
  B  B33  1  0.89388176  0.19955074  0.64773756  1
  B  B34  1  0.89388166  0.87312993  0.64773809  1
  B  B35  1  0.44379336  0.76138686  0.81568043  1
  N  N36  1  0.21803176  0.20456434  0.33284326  1
  N  N37  1  0.10802230  0.09786599  0.07162917  1
  N  N38  1  0.88748838  0.20639932  0.80806422  1
  N  N39  1  0.80394444  0.08131047  0.59542394  1
  N  N40  1  0.55741234  0.20457925  0.38694607  1
  N  N41  1  0.45122301  0.08972561  0.13092494  1
  N  N42  1  0.21488321  0.21271341  0.83109387  1
  N  N43  1  0.08219676  0.11172077  0.59422662  1
  N  N44  1  0.88979947  0.20329513  0.32638152  1
  N  N45  1  0.78707120  0.08974532  0.06918017  1
  N  N46  1  0.54919584  0.20868681  0.87491558  1
  N  N47  1  0.44373980  0.09439781  0.63105083  1
  N  N48  1  0.21803105  0.54398265  0.33284307  1
  N  N49  1  0.10956886  0.42849697  0.08315001  1
  N  N50  1  0.88995884  0.53830624  0.82633044  1
  N  N51  1  0.79369798  0.39909707  0.59000164  1
  N  N52  1  0.55362554  0.54245752  0.38910300  1
  N  N53  1  0.45122205  0.42560933  0.13092505  1
  N  N54  1  0.21488213  0.53897973  0.83109412  1
  N  N55  1  0.10851319  0.42902671  0.57585362  1
  N  N56  1  0.88602884  0.54027208  0.33102151  1
  N  N57  1  0.78178382  0.42389706  0.07217663  1
  N  N58  1  0.53762187  0.56770101  0.87289602  1
  N  N59  1  0.44373951  0.42842059  0.63105158  1
  N  N60  1  0.22910455  0.86873713  0.39689170  1
  N  N61  1  0.10802014  0.76067432  0.07162889  1
  N  N62  1  0.88748808  0.87268296  0.80806455  1
  N  N63  1  0.79369772  0.77376806  0.59000315  1
  N  N64  1  0.55362625  0.87048753  0.38910310  1
  N  N65  1  0.44375831  0.76139987  0.13782609  1
  N  N66  1  0.24819603  0.85918846  0.86278368  1
  N  N67  1  0.08219569  0.77264802  0.59422717  1
  N  N68  1  0.88979988  0.87347896  0.32638141  1
  N  N69  1  0.78178459  0.76087997  0.07217656  1
  N  N70  1  0.53762329  0.86124476  0.87289455  1
  N  N71  1  0.44805283  0.75925330  0.65414645  1
