# generated using pymatgen
data_Al11BN12
_symmetry_space_group_name_H-M   'P 1'
_cell_length_a   9.30823700
_cell_length_b   9.30218803
_cell_length_c   10.01851810
_cell_angle_alpha   90.04356112
_cell_angle_beta   90.39511299
_cell_angle_gamma   60.01569216
_symmetry_Int_Tables_number   1
_chemical_formula_structural   Al11BN12
_chemical_formula_sum   'Al33 B3 N36'
_cell_volume   751.35105625
_cell_formula_units_Z   3
loop_
 _symmetry_equiv_pos_site_id
 _symmetry_equiv_pos_as_xyz
  1  'x, y, z'
loop_
 _atom_site_type_symbol
 _atom_site_label
 _atom_site_symmetry_multiplicity
 _atom_site_fract_x
 _atom_site_fract_y
 _atom_site_fract_z
 _atom_site_occupancy
  Al  Al0  1  0.10596761  0.10011775  0.39937672  1
  Al  Al1  1  0.21685296  0.20526945  0.14074587  1
  Al  Al2  1  0.78212733  0.09234212  0.87507175  1
  Al  Al3  1  0.45477107  0.08840847  0.32628224  1
  Al  Al4  1  0.55391132  0.20583038  0.06884401  1
  Al  Al5  1  0.10969216  0.09760910  0.87790727  1
  Al  Al6  1  0.20850055  0.21214310  0.64181676  1
  Al  Al7  1  0.79143534  0.08813327  0.39908110  1
  Al  Al8  1  0.88934329  0.20370171  0.13713847  1
  Al  Al9  1  0.44623923  0.08806824  0.82129236  1
  Al  Al10  1  0.55794618  0.20408907  0.57947063  1
  Al  Al11  1  0.11269950  0.42662459  0.38934320  1
  Al  Al12  1  0.21948358  0.54213773  0.12219653  1
  Al  Al13  1  0.77646093  0.42952621  0.87836519  1
  Al  Al14  1  0.88866259  0.53856299  0.63998636  1
  Al  Al15  1  0.45060148  0.42611036  0.32593009  1
  Al  Al16  1  0.54923174  0.54608225  0.06804957  1
  Al  Al17  1  0.10775105  0.42710281  0.89163898  1
  Al  Al18  1  0.21071638  0.54311713  0.63452653  1
  Al  Al19  1  0.78547753  0.41966943  0.39511586  1
  Al  Al20  1  0.88427758  0.54123999  0.13926261  1
  Al  Al21  1  0.44526586  0.43237076  0.82145572  1
  Al  Al22  1  0.55440435  0.53758831  0.58155642  1
  Al  Al23  1  0.10640459  0.76177879  0.39921344  1
  Al  Al24  1  0.23244938  0.86769573  0.06360956  1
  Al  Al25  1  0.77735610  0.75961911  0.87877559  1
  Al  Al26  1  0.44290892  0.76201400  0.32803097  1
  Al  Al27  1  0.54901164  0.87236717  0.06816315  1
  Al  Al28  1  0.10960242  0.76074276  0.87328034  1
  Al  Al29  1  0.21758775  0.87529623  0.59877742  1
  Al  Al30  1  0.78672582  0.76092350  0.39539279  1
  Al  Al31  1  0.88969197  0.87360098  0.13725819  1
  Al  Al32  1  0.55491752  0.87426710  0.58185875  1
  B  B33  1  0.89273761  0.19974703  0.64778186  1
  B  B34  1  0.89263178  0.87427306  0.64824491  1
  B  B35  1  0.44394100  0.76158063  0.81621526  1
  N  N36  1  0.21854448  0.20441330  0.33346756  1
  N  N37  1  0.10856915  0.09780265  0.07184500  1
  N  N38  1  0.88629674  0.20676074  0.80842142  1
  N  N39  1  0.80321172  0.08168356  0.59521527  1
  N  N40  1  0.55741435  0.20538784  0.38719070  1
  N  N41  1  0.45227119  0.08969606  0.13223894  1
  N  N42  1  0.21534613  0.21100766  0.83112190  1
  N  N43  1  0.08142370  0.11179864  0.59478046  1
  N  N44  1  0.89011031  0.20360613  0.32654049  1
  N  N45  1  0.78757358  0.08961002  0.06975196  1
  N  N46  1  0.54780272  0.20922603  0.87755117  1
  N  N47  1  0.44418597  0.09457654  0.63129575  1
  N  N48  1  0.22000853  0.54264576  0.34302165  1
  N  N49  1  0.10920275  0.42666157  0.08143559  1
  N  N50  1  0.88774156  0.53890864  0.82660951  1
  N  N51  1  0.79310497  0.39889382  0.59010674  1
  N  N52  1  0.55306448  0.54246104  0.38905914  1
  N  N53  1  0.45184884  0.42505756  0.13100193  1
  N  N54  1  0.21582708  0.53801057  0.83562576  1
  N  N55  1  0.10716970  0.42754710  0.57797382  1
  N  N56  1  0.88601043  0.54011118  0.33154171  1
  N  N57  1  0.78219627  0.42375574  0.07295335  1
  N  N58  1  0.53671870  0.56792940  0.87399860  1
  N  N59  1  0.44513541  0.42701674  0.63222907  1
  N  N60  1  0.22923845  0.86964851  0.39814664  1
  N  N61  1  0.10742614  0.76290224  0.06943537  1
  N  N62  1  0.88496647  0.87407008  0.80818025  1
  N  N63  1  0.79420443  0.77364911  0.59008391  1
  N  N64  1  0.55391792  0.87066693  0.38954622  1
  N  N65  1  0.44399942  0.76165346  0.13845365  1
  N  N66  1  0.24807053  0.86005818  0.86191698  1
  N  N67  1  0.08230684  0.77390026  0.59716007  1
  N  N68  1  0.89019014  0.87360235  0.32675448  1
  N  N69  1  0.78261441  0.76050577  0.07305544  1
  N  N70  1  0.53736236  0.86167051  0.87398940  1
  N  N71  1  0.44901409  0.75885313  0.65473008  1
