# generated using pymatgen
data_Al11BN12
_symmetry_space_group_name_H-M   'P 1'
_cell_length_a   9.28893611
_cell_length_b   9.28699093
_cell_length_c   9.87570072
_cell_angle_alpha   90.15193456
_cell_angle_beta   90.18825149
_cell_angle_gamma   59.90881253
_symmetry_Int_Tables_number   1
_chemical_formula_structural   Al11BN12
_chemical_formula_sum   'Al33 B3 N36'
_cell_volume   737.11817587
_cell_formula_units_Z   3
loop_
 _symmetry_equiv_pos_site_id
 _symmetry_equiv_pos_as_xyz
  1  'x, y, z'
loop_
 _atom_site_type_symbol
 _atom_site_label
 _atom_site_symmetry_multiplicity
 _atom_site_fract_x
 _atom_site_fract_y
 _atom_site_fract_z
 _atom_site_occupancy
  Al  Al0  1  0.11158176  0.09225412  0.31784136  1
  Al  Al1  1  0.22030238  0.20531823  0.06300831  1
  Al  Al2  1  0.78247208  0.09180435  0.80401996  1
  Al  Al3  1  0.44673895  0.09153771  0.31165952  1
  Al  Al4  1  0.55905742  0.20368621  0.06292201  1
  Al  Al5  1  0.10874430  0.09502015  0.80879718  1
  Al  Al6  1  0.21813080  0.20535392  0.56125848  1
  Al  Al7  1  0.78101922  0.09313533  0.32501434  1
  Al  Al8  1  0.88801294  0.20442337  0.06500902  1
  Al  Al9  1  0.44140242  0.09191875  0.81372670  1
  Al  Al10  1  0.56096329  0.20212712  0.56333934  1
  Al  Al11  1  0.11624543  0.42521144  0.31845209  1
  Al  Al12  1  0.22060957  0.54113842  0.06265201  1
  Al  Al13  1  0.77485489  0.42558724  0.80729001  1
  Al  Al14  1  0.89042681  0.53682049  0.57892241  1
  Al  Al15  1  0.44621493  0.42782044  0.31180032  1
  Al  Al16  1  0.55418545  0.54343021  0.05866205  1
  Al  Al17  1  0.11065789  0.42810215  0.81040243  1
  Al  Al18  1  0.21765202  0.54381078  0.56140737  1
  Al  Al19  1  0.77725751  0.42325730  0.32727713  1
  Al  Al20  1  0.88506464  0.54188551  0.10075029  1
  Al  Al21  1  0.44175030  0.43311698  0.81309566  1
  Al  Al22  1  0.55646545  0.53463391  0.56863688  1
  Al  Al23  1  0.11193971  0.76316720  0.31722111  1
  Al  Al24  1  0.22587856  0.87063101  0.05805176  1
  Al  Al25  1  0.77478213  0.76532218  0.80605991  1
  Al  Al26  1  0.44562282  0.76057649  0.31469148  1
  Al  Al27  1  0.55469595  0.86865828  0.05862502  1
  Al  Al28  1  0.10874710  0.76331100  0.80905462  1
  Al  Al29  1  0.21405208  0.87649375  0.56851880  1
  Al  Al30  1  0.77794841  0.76586936  0.33337270  1
  Al  Al31  1  0.88737531  0.87416876  0.06504038  1
  Al  Al32  1  0.55518876  0.87459618  0.57025497  1
  B  B33  1  0.89432500  0.19777197  0.55672031  1
  B  B34  1  0.89543393  0.87752709  0.55696605  1
  B  B35  1  0.44489584  0.76044700  0.80762116  1
  N  N36  1  0.22507348  0.20234263  0.37055865  1
  N  N37  1  0.11052155  0.09290131  0.12388802  1
  N  N38  1  0.88705377  0.20456510  0.87457906  1
  N  N39  1  0.80084986  0.08240999  0.60837099  1
  N  N40  1  0.55509749  0.20539806  0.37176937  1
  N  N41  1  0.44543517  0.09266627  0.11802934  1
  N  N42  1  0.21892994  0.20624119  0.87118906  1
  N  N43  1  0.08604084  0.10746093  0.61505753  1
  N  N44  1  0.89287884  0.20173025  0.39329200  1
  N  N45  1  0.77965028  0.09389341  0.13108035  1
  N  N46  1  0.55860377  0.20398505  0.86854530  1
  N  N47  1  0.44125029  0.09712928  0.62319932  1
  N  N48  1  0.22455221  0.53974906  0.37066626  1
  N  N49  1  0.11305995  0.42733311  0.12445931  1
  N  N50  1  0.88441614  0.54074441  0.84339001  1
  N  N51  1  0.78821790  0.39640471  0.61281529  1
  N  N52  1  0.55322817  0.54060646  0.37727812  1
  N  N53  1  0.44553920  0.42868727  0.11823120  1
  N  N54  1  0.21928630  0.54155449  0.87076275  1
  N  N55  1  0.11645633  0.42536080  0.61819273  1
  N  N56  1  0.89086247  0.53704784  0.37033110  1
  N  N57  1  0.77438735  0.42521639  0.12967491  1
  N  N58  1  0.54386709  0.56280322  0.86317407  1
  N  N59  1  0.44159427  0.42779397  0.62242176  1
  N  N60  1  0.22598496  0.87049871  0.37717502  1
  N  N61  1  0.11045998  0.76398241  0.12332338  1
  N  N62  1  0.88661595  0.87434246  0.87418417  1
  N  N63  1  0.78778628  0.77991472  0.61137529  1
  N  N64  1  0.55253870  0.87265553  0.37885989  1
  N  N65  1  0.44440189  0.76141490  0.12429627  1
  N  N66  1  0.24407247  0.86143661  0.86065288  1
  N  N67  1  0.08606652  0.77445818  0.61551850  1
  N  N68  1  0.89412979  0.87315557  0.39409708  1
  N  N69  1  0.77378405  0.76869504  0.13174953  1
  N  N70  1  0.54377828  0.85953030  0.86268796  1
  N  N71  1  0.44459548  0.76007336  0.64226370  1
