# generated using pymatgen
data_Al11BN12
_symmetry_space_group_name_H-M   'P 1'
_cell_length_a   9.29458697
_cell_length_b   9.30831836
_cell_length_c   10.07530078
_cell_angle_alpha   90.04377036
_cell_angle_beta   90.62013315
_cell_angle_gamma   59.96676072
_symmetry_Int_Tables_number   1
_chemical_formula_structural   Al11BN12
_chemical_formula_sum   'Al33 B3 N36'
_cell_volume   754.59288050
_cell_formula_units_Z   3
loop_
 _symmetry_equiv_pos_site_id
 _symmetry_equiv_pos_as_xyz
  1  'x, y, z'
loop_
 _atom_site_type_symbol
 _atom_site_label
 _atom_site_symmetry_multiplicity
 _atom_site_fract_x
 _atom_site_fract_y
 _atom_site_fract_z
 _atom_site_occupancy
  Al  Al0  1  0.10456020  0.09492679  0.38828592  1
  Al  Al1  1  0.22588335  0.20041507  0.07465349  1
  Al  Al2  1  0.77934288  0.09470856  0.87861917  1
  Al  Al3  1  0.44959440  0.09040370  0.32667182  1
  Al  Al4  1  0.55231389  0.20724988  0.07061849  1
  Al  Al5  1  0.11020802  0.09235731  0.86795687  1
  Al  Al6  1  0.21957438  0.20547687  0.58264854  1
  Al  Al7  1  0.79149169  0.08541330  0.40281879  1
  Al  Al8  1  0.88916393  0.20351295  0.13801845  1
  Al  Al9  1  0.44119414  0.09172269  0.82129686  1
  Al  Al10  1  0.55760330  0.20533633  0.58242149  1
  Al  Al11  1  0.10746251  0.42936317  0.38601568  1
  Al  Al12  1  0.22523598  0.54259680  0.07710329  1
  Al  Al13  1  0.77633520  0.42949308  0.88003377  1
  Al  Al14  1  0.89166030  0.53795893  0.64292953  1
  Al  Al15  1  0.45101195  0.42450818  0.32625611  1
  Al  Al16  1  0.54973069  0.54530341  0.06884030  1
  Al  Al17  1  0.10296195  0.43444624  0.89082934  1
  Al  Al18  1  0.21737120  0.54965788  0.57178269  1
  Al  Al19  1  0.78513222  0.41907571  0.39853560  1
  Al  Al20  1  0.88458162  0.54041384  0.14139125  1
  Al  Al21  1  0.43800921  0.43643693  0.82241163  1
  Al  Al22  1  0.55480571  0.53758136  0.58513789  1
  Al  Al23  1  0.11909017  0.75988490  0.32183228  1
  Al  Al24  1  0.22926655  0.86400892  0.06515027  1
  Al  Al25  1  0.77442618  0.76125888  0.88078213  1
  Al  Al26  1  0.44737075  0.76003235  0.32797668  1
  Al  Al27  1  0.54797625  0.87141023  0.06856194  1
  Al  Al28  1  0.11483040  0.76017943  0.81859077  1
  Al  Al29  1  0.21495249  0.87254742  0.58599315  1
  Al  Al30  1  0.78717970  0.76198151  0.39995278  1
  Al  Al31  1  0.88136131  0.87677719  0.13906617  1
  Al  Al32  1  0.55473954  0.87406694  0.58489521  1
  B  B33  1  0.89448850  0.19847752  0.64993425  1
  B  B34  1  0.88798450  0.87732954  0.65268796  1
  B  B35  1  0.44245005  0.76110322  0.81841004  1
  N  N36  1  0.22770567  0.19898693  0.38206245  1
  N  N37  1  0.10630241  0.09175296  0.07756103  1
  N  N38  1  0.88424804  0.20765145  0.80924511  1
  N  N39  1  0.80399530  0.07988588  0.59727246  1
  N  N40  1  0.55662420  0.20472806  0.39040065  1
  N  N41  1  0.44897915  0.09055771  0.13517250  1
  N  N42  1  0.22370652  0.20722665  0.87555597  1
  N  N43  1  0.08425251  0.10711991  0.60167943  1
  N  N44  1  0.88650689  0.20425298  0.32732166  1
  N  N45  1  0.78570114  0.09026140  0.07075552  1
  N  N46  1  0.54467409  0.21246584  0.87941062  1
  N  N47  1  0.44361059  0.09542408  0.63610581  1
  N  N48  1  0.22690516  0.54117177  0.37996550  1
  N  N49  1  0.10688125  0.43001841  0.08967597  1
  N  N50  1  0.88605974  0.54074757  0.82770443  1
  N  N51  1  0.79458675  0.39791958  0.59179944  1
  N  N52  1  0.55265189  0.54185566  0.39239688  1
  N  N53  1  0.45000155  0.42593359  0.13537956  1
  N  N54  1  0.22048866  0.54645515  0.88507491  1
  N  N55  1  0.10571791  0.43308332  0.58350020  1
  N  N56  1  0.88287001  0.54168573  0.33269494  1
  N  N57  1  0.78267265  0.42305233  0.07324410  1
  N  N58  1  0.53704851  0.56746805  0.87411116  1
  N  N59  1  0.43957203  0.43067787  0.63611372  1
  N  N60  1  0.22734941  0.86592104  0.39319683  1
  N  N61  1  0.11716629  0.76145175  0.13113022  1
  N  N62  1  0.87649495  0.87864678  0.81300649  1
  N  N63  1  0.79488084  0.77491652  0.59278927  1
  N  N64  1  0.55334099  0.87129492  0.39284328  1
  N  N65  1  0.44594567  0.75995324  0.13928753  1
  N  N66  1  0.24696052  0.85596678  0.86979744  1
  N  N67  1  0.09051981  0.77108950  0.63103245  1
  N  N68  1  0.88449064  0.87538589  0.32832481  1
  N  N69  1  0.78200037  0.75973552  0.07280589  1
  N  N70  1  0.53483476  0.86259277  0.87452300  1
  N  N71  1  0.44478462  0.76074566  0.65541473  1
