# generated using pymatgen
data_Al11BN12
_symmetry_space_group_name_H-M   'P 1'
_cell_length_a   9.25919063
_cell_length_b   9.25703049
_cell_length_c   9.89671811
_cell_angle_alpha   90.00014175
_cell_angle_beta   90.07529385
_cell_angle_gamma   60.00757937
_symmetry_Int_Tables_number   1
_chemical_formula_structural   Al11BN12
_chemical_formula_sum   'Al33 B3 N36'
_cell_volume   734.68169126
_cell_formula_units_Z   3
loop_
 _symmetry_equiv_pos_site_id
 _symmetry_equiv_pos_as_xyz
  1  'x, y, z'
loop_
 _atom_site_type_symbol
 _atom_site_label
 _atom_site_symmetry_multiplicity
 _atom_site_fract_x
 _atom_site_fract_y
 _atom_site_fract_z
 _atom_site_occupancy
  Al  Al0  1  0.11057185  0.09319224  0.31146551  1
  Al  Al1  1  0.22132370  0.20456928  0.05608573  1
  Al  Al2  1  0.78278416  0.09194120  0.79679629  1
  Al  Al3  1  0.44519941  0.09308639  0.30577320  1
  Al  Al4  1  0.55948843  0.20358896  0.05662044  1
  Al  Al5  1  0.10950398  0.09408285  0.80179987  1
  Al  Al6  1  0.21640277  0.20755927  0.55495495  1
  Al  Al7  1  0.78060400  0.09303133  0.32025347  1
  Al  Al8  1  0.88823072  0.20418199  0.05823603  1
  Al  Al9  1  0.44257833  0.09093075  0.80593531  1
  Al  Al10  1  0.56078830  0.20293890  0.55645124  1
  Al  Al11  1  0.11077847  0.42794369  0.30497422  1
  Al  Al12  1  0.22132390  0.54077278  0.05608582  1
  Al  Al13  1  0.77664784  0.42678230  0.80182758  1
  Al  Al14  1  0.89028014  0.53819276  0.55628844  1
  Al  Al15  1  0.44519943  0.42838052  0.30577333  1
  Al  Al16  1  0.55469132  0.54322463  0.05183145  1
  Al  Al17  1  0.11016724  0.42824949  0.80610899  1
  Al  Al18  1  0.21640248  0.54270448  0.55495488  1
  Al  Al19  1  0.77791895  0.42565375  0.31315213  1
  Al  Al20  1  0.88681551  0.53992509  0.05653218  1
  Al  Al21  1  0.44257827  0.43315776  0.80593517  1
  Al  Al22  1  0.55779220  0.53544757  0.56150426  1
  Al  Al23  1  0.11057192  0.76290208  0.31146556  1
  Al  Al24  1  0.22592929  0.87036812  0.05157370  1
  Al  Al25  1  0.77664761  0.76323599  0.80182768  1
  Al  Al26  1  0.44492127  0.76087274  0.30768378  1
  Al  Al27  1  0.55469149  0.86875009  0.05183151  1
  Al  Al28  1  0.10950376  0.76307967  0.80179985  1
  Al  Al29  1  0.21412745  0.87626962  0.56170634  1
  Al  Al30  1  0.77791920  0.76309344  0.31315220  1
  Al  Al31  1  0.88823066  0.87425381  0.05823606  1
  Al  Al32  1  0.55779251  0.87342632  0.56150429  1
  B  B33  1  0.89501256  0.19850846  0.55033429  1
  B  B34  1  0.89501258  0.87314621  0.55033430  1
  B  B35  1  0.44576912  0.76044863  0.80066761  1
  N  N36  1  0.22239069  0.20567848  0.36406701  1
  N  N37  1  0.11082091  0.09240792  0.11766776  1
  N  N38  1  0.88777468  0.20457857  0.86771271  1
  N  N39  1  0.79986447  0.08340084  0.60161599  1
  N  N40  1  0.55430522  0.20618039  0.36578603  1
  N  N41  1  0.44593222  0.09227447  0.11232525  1
  N  N42  1  0.22007972  0.20504548  0.86423276  1
  N  N43  1  0.08560597  0.10746585  0.60839195  1
  N  N44  1  0.89125744  0.20465163  0.38688737  1
  N  N45  1  0.77987191  0.09339762  0.12587012  1
  N  N46  1  0.55901045  0.20382813  0.86222635  1
  N  N47  1  0.44127920  0.09675711  0.61550125  1
  N  N48  1  0.22239058  0.53859676  0.36406694  1
  N  N49  1  0.11057062  0.42804794  0.11360670  1
  N  N50  1  0.88613766  0.54026410  0.86272084  1
  N  N51  1  0.78979928  0.40158678  0.60889309  1
  N  N52  1  0.55456579  0.54019947  0.36986176  1
  N  N53  1  0.44593222  0.42846009  0.11232542  1
  N  N54  1  0.22007973  0.54154096  0.86423277  1
  N  N55  1  0.11050377  0.42808150  0.61569357  1
  N  N56  1  0.88924190  0.53871201  0.36599673  1
  N  N57  1  0.77682199  0.42676967  0.11838435  1
  N  N58  1  0.54496210  0.56303523  0.85615257  1
  N  N59  1  0.44127910  0.42863049  0.61550113  1
  N  N60  1  0.22503640  0.87081484  0.37092752  1
  N  N61  1  0.11082090  0.76343760  0.11766780  1
  N  N62  1  0.88777443  0.87431315  0.86771271  1
  N  N63  1  0.78979923  0.77528001  0.60889322  1
  N  N64  1  0.55456599  0.87190092  0.36986173  1
  N  N65  1  0.44422318  0.76122177  0.11767493  1
  N  N66  1  0.24480250  0.86093184  0.85391695  1
  N  N67  1  0.08560600  0.77359509  0.60839192  1
  N  N68  1  0.89125748  0.87075726  0.38688734  1
  N  N69  1  0.77682224  0.76307489  0.11838427  1
  N  N70  1  0.54496195  0.85866896  0.85615265  1
  N  N71  1  0.44467922  0.76099370  0.63503640  1
