# generated using pymatgen
data_Al11BN12
_symmetry_space_group_name_H-M   'P 1'
_cell_length_a   9.27294718
_cell_length_b   9.28385620
_cell_length_c   10.13033170
_cell_angle_alpha   90.00218048
_cell_angle_beta   90.42597147
_cell_angle_gamma   59.95763855
_symmetry_Int_Tables_number   1
_chemical_formula_structural   Al11BN12
_chemical_formula_sum   'Al33 B3 N36'
_cell_volume   754.91666132
_cell_formula_units_Z   3
loop_
 _symmetry_equiv_pos_site_id
 _symmetry_equiv_pos_as_xyz
  1  'x, y, z'
loop_
 _atom_site_type_symbol
 _atom_site_label
 _atom_site_symmetry_multiplicity
 _atom_site_fract_x
 _atom_site_fract_y
 _atom_site_fract_z
 _atom_site_occupancy
  Al  Al0  1  0.12195083  0.08780824  0.32024957  1
  Al  Al1  1  0.22096791  0.20669262  0.07161320  1
  Al  Al2  1  0.76914305  0.09876471  0.82363925  1
  Al  Al3  1  0.45030595  0.08983132  0.32304048  1
  Al  Al4  1  0.55696434  0.20484874  0.06802702  1
  Al  Al5  1  0.11752890  0.09032069  0.81899633  1
  Al  Al6  1  0.21492224  0.20767354  0.56986850  1
  Al  Al7  1  0.78516668  0.09075043  0.36934508  1
  Al  Al8  1  0.88315848  0.20928021  0.13827106  1
  Al  Al9  1  0.43924823  0.09138572  0.82074787  1
  Al  Al10  1  0.55760753  0.20452574  0.57649959  1
  Al  Al11  1  0.11836081  0.42415348  0.32208970  1
  Al  Al12  1  0.22096896  0.53900356  0.07161333  1
  Al  Al13  1  0.77627950  0.43205843  0.88360711  1
  Al  Al14  1  0.88447724  0.54109424  0.64202704  1
  Al  Al15  1  0.45030610  0.42652765  0.32304109  1
  Al  Al16  1  0.54586070  0.54691367  0.06756772  1
  Al  Al17  1  0.11671123  0.42497953  0.82108889  1
  Al  Al18  1  0.21492158  0.54406736  0.56986905  1
  Al  Al19  1  0.78957259  0.41718566  0.40146489  1
  Al  Al20  1  0.87807423  0.54429544  0.14176777  1
  Al  Al21  1  0.43924781  0.43603417  0.82074761  1
  Al  Al22  1  0.55207170  0.53892847  0.58398679  1
  Al  Al23  1  0.12195043  0.75690738  0.32025028  1
  Al  Al24  1  0.22619113  0.87023606  0.06613121  1
  Al  Al25  1  0.77627885  0.75833552  0.88360736  1
  Al  Al26  1  0.45106598  0.75779934  0.32660606  1
  Al  Al27  1  0.54585928  0.87388737  0.06756735  1
  Al  Al28  1  0.11752666  0.75882144  0.81899613  1
  Al  Al29  1  0.20896364  0.87884872  0.57597967  1
  Al  Al30  1  0.78957231  0.75990991  0.40146506  1
  Al  Al31  1  0.88315990  0.87422140  0.13827151  1
  Al  Al32  1  0.55207194  0.87566086  0.58398564  1
  B  B33  1  0.89206271  0.20680149  0.65329907  1
  B  B34  1  0.89205924  0.86780932  0.65329772  1
  B  B35  1  0.44178796  0.76243888  0.81892319  1
  N  N36  1  0.22547085  0.20357118  0.38263946  1
  N  N37  1  0.11910232  0.08880401  0.12879645  1
  N  N38  1  0.88114351  0.21589822  0.81355291  1
  N  N39  1  0.79591889  0.08536960  0.61609091  1
  N  N40  1  0.55550736  0.20557672  0.38711985  1
  N  N41  1  0.44674612  0.09282364  0.13257167  1
  N  N42  1  0.21908868  0.20660308  0.88387013  1
  N  N43  1  0.09169931  0.10501815  0.62945445  1
  N  N44  1  0.88927879  0.20840354  0.32919392  1
  N  N45  1  0.77983231  0.09341806  0.09794644  1
  N  N46  1  0.54669810  0.20998300  0.87755667  1
  N  N47  1  0.43978421  0.09741047  0.63466318  1
  N  N48  1  0.22547170  0.53761969  0.38264004  1
  N  N49  1  0.11405645  0.42630980  0.13284222  1
  N  N50  1  0.88358423  0.54153820  0.82780064  1
  N  N51  1  0.79517191  0.39776285  0.59184149  1
  N  N52  1  0.55398517  0.54059885  0.39260955  1
  N  N53  1  0.44674691  0.42710213  0.13257198  1
  N  N54  1  0.21908888  0.54097427  0.88387020  1
  N  N55  1  0.11644196  0.42511544  0.63050503  1
  N  N56  1  0.88232705  0.54216487  0.33586137  1
  N  N57  1  0.78086783  0.42589210  0.07260775  1
  N  N58  1  0.53457195  0.56939865  0.87386897  1
  N  N59  1  0.43978510  0.42947574  0.63466257  1
  N  N60  1  0.22653222  0.87006520  0.38808383  1
  N  N61  1  0.11910301  0.75876836  0.12879737  1
  N  N62  1  0.88114286  0.86962180  0.81355430  1
  N  N63  1  0.79517161  0.77373212  0.59184037  1
  N  N64  1  0.55398474  0.87207722  0.39260888  1
  N  N65  1  0.44629499  0.76018822  0.13881179  1
  N  N66  1  0.24235435  0.86215543  0.87389205  1
  N  N67  1  0.09169863  0.76995469  0.62945447  1
  N  N68  1  0.88927858  0.86897412  0.32919424  1
  N  N69  1  0.78086643  0.75990802  0.07260797  1
  N  N70  1  0.53457069  0.86269379  0.87387001  1
  N  N71  1  0.44086666  0.76290162  0.65457758  1
