# generated using pymatgen
data_Al11BN12
_symmetry_space_group_name_H-M   'P 1'
_cell_length_a   9.29765879
_cell_length_b   9.28463375
_cell_length_c   9.97066623
_cell_angle_alpha   89.99053058
_cell_angle_beta   90.29279571
_cell_angle_gamma   59.99417783
_symmetry_Int_Tables_number   1
_chemical_formula_structural   Al11BN12
_chemical_formula_sum   'Al33 B3 N36'
_cell_volume   745.34938007
_cell_formula_units_Z   3
loop_
 _symmetry_equiv_pos_site_id
 _symmetry_equiv_pos_as_xyz
  1  'x, y, z'
loop_
 _atom_site_type_symbol
 _atom_site_label
 _atom_site_symmetry_multiplicity
 _atom_site_fract_x
 _atom_site_fract_y
 _atom_site_fract_z
 _atom_site_occupancy
  Al  Al0  1  0.11337015  0.09167824  0.31443207  1
  Al  Al1  1  0.21767525  0.20725350  0.06167794  1
  Al  Al2  1  0.78285565  0.08893403  0.80089475  1
  Al  Al3  1  0.44766764  0.09177258  0.31136783  1
  Al  Al4  1  0.55832822  0.20405281  0.06199745  1
  Al  Al5  1  0.10916760  0.09301699  0.80699301  1
  Al  Al6  1  0.21660133  0.20717244  0.55937737  1
  Al  Al7  1  0.78149640  0.09460425  0.32046784  1
  Al  Al8  1  0.88637886  0.20663359  0.06103770  1
  Al  Al9  1  0.44196367  0.09062400  0.81187285  1
  Al  Al10  1  0.56187562  0.20281715  0.56104319  1
  Al  Al11  1  0.12085361  0.42416799  0.31285598  1
  Al  Al12  1  0.21919375  0.54056243  0.06155859  1
  Al  Al13  1  0.77133658  0.42575280  0.81660612  1
  Al  Al14  1  0.88796488  0.54672404  0.62568068  1
  Al  Al15  1  0.44860179  0.42830168  0.30989818  1
  Al  Al16  1  0.55303695  0.54357855  0.05637853  1
  Al  Al17  1  0.11686939  0.42394831  0.81137538  1
  Al  Al18  1  0.21785007  0.54259580  0.55888851  1
  Al  Al19  1  0.78202924  0.42479288  0.37245986  1
  Al  Al20  1  0.87737195  0.54379794  0.13506954  1
  Al  Al21  1  0.44079182  0.43201667  0.81221389  1
  Al  Al22  1  0.55019637  0.54009624  0.57268854  1
  Al  Al23  1  0.11506792  0.76248136  0.31448595  1
  Al  Al24  1  0.22378777  0.87051193  0.05671238  1
  Al  Al25  1  0.77447733  0.75550743  0.87462240  1
  Al  Al26  1  0.44801568  0.75972526  0.31376788  1
  Al  Al27  1  0.54318579  0.87348726  0.05926549  1
  Al  Al28  1  0.10845364  0.76252300  0.80556294  1
  Al  Al29  1  0.21460975  0.87633937  0.56524938  1
  Al  Al30  1  0.78453269  0.76192435  0.38858085  1
  Al  Al31  1  0.89007194  0.87645889  0.06240138  1
  Al  Al32  1  0.55286680  0.87659181  0.57352989  1
  B  B33  1  0.90056014  0.18692238  0.55564492  1
  B  B34  1  0.90020668  0.87756236  0.55349754  1
  B  B35  1  0.44029130  0.76345437  0.80714238  1
  N  N36  1  0.22488849  0.20339876  0.37022383  1
  N  N37  1  0.10948223  0.09261203  0.12214230  1
  N  N38  1  0.88812778  0.20124856  0.86947899  1
  N  N39  1  0.80314273  0.08207416  0.60646344  1
  N  N40  1  0.55688584  0.20567402  0.37110070  1
  N  N41  1  0.44322843  0.09440060  0.11939903  1
  N  N42  1  0.21975610  0.20393121  0.87058202  1
  N  N43  1  0.08699828  0.10595243  0.61448223  1
  N  N44  1  0.89840592  0.19552036  0.39478558  1
  N  N45  1  0.77921912  0.09366021  0.12937783  1
  N  N46  1  0.55917164  0.20236961  0.86813355  1
  N  N47  1  0.44128485  0.09867645  0.62262887  1
  N  N48  1  0.22647830  0.53905851  0.36987899  1
  N  N49  1  0.11202139  0.42751645  0.12088941  1
  N  N50  1  0.88553091  0.54005021  0.81839136  1
  N  N51  1  0.78673000  0.40487540  0.60173273  1
  N  N52  1  0.55212920  0.54206528  0.38110370  1
  N  N53  1  0.44408586  0.42888882  0.11779917  1
  N  N54  1  0.21934083  0.54138757  0.87062250  1
  N  N55  1  0.11768184  0.42505199  0.61791229  1
  N  N56  1  0.88891848  0.54282495  0.33401730  1
  N  N57  1  0.77229996  0.42616261  0.10624858  1
  N  N58  1  0.53959831  0.56478146  0.86009918  1
  N  N59  1  0.44120851  0.42703503  0.62297885  1
  N  N60  1  0.22836940  0.87030808  0.37583935  1
  N  N61  1  0.11047351  0.76283884  0.12313595  1
  N  N62  1  0.89090854  0.87476637  0.87086397  1
  N  N63  1  0.79087975  0.77736636  0.58329664  1
  N  N64  1  0.55299412  0.87319552  0.37781101  1
  N  N65  1  0.44103986  0.76072906  0.12507543  1
  N  N66  1  0.24232315  0.86073517  0.86006145  1
  N  N67  1  0.08776010  0.77329995  0.61309640  1
  N  N68  1  0.90056782  0.87702727  0.38966240  1
  N  N69  1  0.77394755  0.76086437  0.07359855  1
  N  N70  1  0.53527446  0.86152858  0.86261606  1
  N  N71  1  0.44100557  0.76385649  0.64245519  1
