# generated using pymatgen
data_Al11BN12
_symmetry_space_group_name_H-M   'P 1'
_cell_length_a   9.24764581
_cell_length_b   9.29056623
_cell_length_c   9.89512418
_cell_angle_alpha   90.23603102
_cell_angle_beta   89.92231012
_cell_angle_gamma   60.07237016
_symmetry_Int_Tables_number   1
_chemical_formula_structural   Al11BN12
_chemical_formula_sum   'Al33 B3 N36'
_cell_volume   736.77426884
_cell_formula_units_Z   3
loop_
 _symmetry_equiv_pos_site_id
 _symmetry_equiv_pos_as_xyz
  1  'x, y, z'
loop_
 _atom_site_type_symbol
 _atom_site_label
 _atom_site_symmetry_multiplicity
 _atom_site_fract_x
 _atom_site_fract_y
 _atom_site_fract_z
 _atom_site_occupancy
  Al  Al0  1  0.10492330  0.09668445  0.39880642  1
  Al  Al1  1  0.22138479  0.20428325  0.14563700  1
  Al  Al2  1  0.78121045  0.09107060  0.87873255  1
  Al  Al3  1  0.44581351  0.09375701  0.39478200  1
  Al  Al4  1  0.55908568  0.20399790  0.14324447  1
  Al  Al5  1  0.11408330  0.09132081  0.88920120  1
  Al  Al6  1  0.21777198  0.20575091  0.64503168  1
  Al  Al7  1  0.78137915  0.09764016  0.40454884  1
  Al  Al8  1  0.88806314  0.20488862  0.14134794  1
  Al  Al9  1  0.44308934  0.09085646  0.89537889  1
  Al  Al10  1  0.56168182  0.20733289  0.64402996  1
  Al  Al11  1  0.11059821  0.42778773  0.39473143  1
  Al  Al12  1  0.22122314  0.54044659  0.14591040  1
  Al  Al13  1  0.77507276  0.42946924  0.88838345  1
  Al  Al14  1  0.89196558  0.53444577  0.64582940  1
  Al  Al15  1  0.44452835  0.42998604  0.39445468  1
  Al  Al16  1  0.55554800  0.54098504  0.13863620  1
  Al  Al17  1  0.11144076  0.42637223  0.89730194  1
  Al  Al18  1  0.21848812  0.53926873  0.64657539  1
  Al  Al19  1  0.77765645  0.42502031  0.39908856  1
  Al  Al20  1  0.88696826  0.53943906  0.14575442  1
  Al  Al21  1  0.44380619  0.43170690  0.89553454  1
  Al  Al22  1  0.55446730  0.54226957  0.64892593  1
  Al  Al23  1  0.10428940  0.76558563  0.39916557  1
  Al  Al24  1  0.22260044  0.87222879  0.13916395  1
  Al  Al25  1  0.77442336  0.75799976  0.89157591  1
  Al  Al26  1  0.44391851  0.76205857  0.39380705  1
  Al  Al27  1  0.55544447  0.87062269  0.13959825  1
  Al  Al28  1  0.11700136  0.75837304  0.89172750  1
  Al  Al29  1  0.21515625  0.87575229  0.64921561  1
  Al  Al30  1  0.77923675  0.76586876  0.39907532  1
  Al  Al31  1  0.88768810  0.87488622  0.14398451  1
  Al  Al32  1  0.55559053  0.87283885  0.65025080  1
  B  B33  1  0.88830183  0.20032450  0.64932593  1
  B  B34  1  0.90493924  0.84321732  0.65811639  1
  B  B35  1  0.44410885  0.76078671  0.89738354  1
  N  N36  1  0.22128248  0.20392068  0.33824774  1
  N  N37  1  0.11015408  0.09443895  0.08106624  1
  N  N38  1  0.89012124  0.20511942  0.81465510  1
  N  N39  1  0.79075862  0.11038616  0.59559473  1
  N  N40  1  0.55818220  0.20557116  0.33748061  1
  N  N41  1  0.44475313  0.09416662  0.08669116  1
  N  N42  1  0.22228886  0.20583049  0.83549285  1
  N  N43  1  0.08650694  0.10475340  0.59413935  1
  N  N44  1  0.88765428  0.20736390  0.33142207  1
  N  N45  1  0.78060107  0.09195428  0.07413717  1
  N  N46  1  0.55385051  0.20594779  0.83515485  1
  N  N47  1  0.44631534  0.09357970  0.58746809  1
  N  N48  1  0.21967514  0.54283858  0.33834594  1
  N  N49  1  0.11106401  0.42700670  0.08897435  1
  N  N50  1  0.89070205  0.53696607  0.83540368  1
  N  N51  1  0.78506262  0.41079378  0.59394204  1
  N  N52  1  0.55589974  0.54106777  0.33248066  1
  N  N53  1  0.44446507  0.42715461  0.08663165  1
  N  N54  1  0.22237826  0.53671495  0.83668321  1
  N  N55  1  0.11211809  0.42583607  0.58506188  1
  N  N56  1  0.88552326  0.54203671  0.33992459  1
  N  N57  1  0.77925407  0.42573155  0.08063398  1
  N  N58  1  0.54196875  0.56465526  0.84255156  1
  N  N59  1  0.44111650  0.43353968  0.58697964  1
  N  N60  1  0.22027813  0.87307560  0.33572909  1
  N  N61  1  0.10961852  0.76121335  0.08274741  1
  N  N62  1  0.89248148  0.86454266  0.81494226  1
  N  N63  1  0.79176005  0.77258664  0.59681353  1
  N  N64  1  0.55710245  0.87092764  0.33400609  1
  N  N65  1  0.44404426  0.76121247  0.06584245  1
  N  N66  1  0.24685910  0.85917662  0.84138251  1
  N  N67  1  0.08545423  0.77080628  0.59668216  1
  N  N68  1  0.88571263  0.87822622  0.33527162  1
  N  N69  1  0.77972698  0.76082159  0.08284555  1
  N  N70  1  0.54279773  0.85944487  0.84296439  1
  N  N71  1  0.44225052  0.76391649  0.58356209  1
