# generated using pymatgen
data_Al11BN12
_symmetry_space_group_name_H-M   'P 1'
_cell_length_a   9.30222690
_cell_length_b   9.35236558
_cell_length_c   9.93558524
_cell_angle_alpha   90.37019924
_cell_angle_beta   90.07829866
_cell_angle_gamma   60.09141723
_symmetry_Int_Tables_number   1
_chemical_formula_structural   Al11BN12
_chemical_formula_sum   'Al33 B3 N36'
_cell_volume   749.24138088
_cell_formula_units_Z   3
loop_
 _symmetry_equiv_pos_site_id
 _symmetry_equiv_pos_as_xyz
  1  'x, y, z'
loop_
 _atom_site_type_symbol
 _atom_site_label
 _atom_site_symmetry_multiplicity
 _atom_site_fract_x
 _atom_site_fract_y
 _atom_site_fract_z
 _atom_site_occupancy
  Al  Al0  1  0.10381551  0.09983797  0.39603068  1
  Al  Al1  1  0.22231340  0.20231911  0.13683342  1
  Al  Al2  1  0.78069550  0.09182902  0.87150979  1
  Al  Al3  1  0.44469754  0.09722422  0.39025753  1
  Al  Al4  1  0.55903059  0.20273846  0.13519443  1
  Al  Al5  1  0.10940508  0.09773848  0.87168949  1
  Al  Al6  1  0.21611260  0.20976431  0.63830761  1
  Al  Al7  1  0.78148957  0.09939286  0.39671341  1
  Al  Al8  1  0.89016345  0.20349656  0.13293875  1
  Al  Al9  1  0.44054535  0.09628772  0.88011099  1
  Al  Al10  1  0.56266527  0.21008354  0.63763870  1
  Al  Al11  1  0.11233049  0.42576672  0.38478581  1
  Al  Al12  1  0.22109498  0.54150469  0.13800963  1
  Al  Al13  1  0.77406377  0.43043199  0.87817336  1
  Al  Al14  1  0.89474665  0.53202745  0.63880607  1
  Al  Al15  1  0.44454741  0.42840020  0.38918185  1
  Al  Al16  1  0.55739179  0.53711371  0.12050800  1
  Al  Al17  1  0.11100387  0.42613586  0.89229467  1
  Al  Al18  1  0.21840870  0.53588858  0.63971138  1
  Al  Al19  1  0.78098500  0.42304175  0.39313647  1
  Al  Al20  1  0.88701470  0.53988070  0.13778812  1
  Al  Al21  1  0.44318171  0.43196500  0.88528134  1
  Al  Al22  1  0.55782633  0.53676818  0.63110040  1
  Al  Al23  1  0.10341965  0.76112936  0.39571450  1
  Al  Al24  1  0.23056141  0.86882508  0.06161538  1
  Al  Al25  1  0.77757243  0.75503736  0.87866611  1
  Al  Al26  1  0.44165894  0.76425677  0.32878675  1
  Al  Al27  1  0.55045803  0.86739482  0.06728173  1
  Al  Al28  1  0.11433413  0.75448583  0.87697725  1
  Al  Al29  1  0.21033624  0.87891876  0.59702904  1
  Al  Al30  1  0.78736565  0.76018527  0.39241531  1
  Al  Al31  1  0.88840569  0.87478995  0.13633218  1
  Al  Al32  1  0.55708666  0.87401221  0.58809383  1
  B  B33  1  0.88430858  0.20709295  0.64184537  1
  B  B34  1  0.91078108  0.82636732  0.65614429  1
  B  B35  1  0.44281503  0.76385170  0.80962296  1
  N  N36  1  0.22301576  0.20069430  0.32935917  1
  N  N37  1  0.10825525  0.09843511  0.06783449  1
  N  N38  1  0.88564424  0.20785159  0.80719890  1
  N  N39  1  0.78430838  0.12619880  0.58425796  1
  N  N40  1  0.55798013  0.20430357  0.32867748  1
  N  N41  1  0.44329173  0.09709797  0.07584994  1
  N  N42  1  0.22031553  0.20937934  0.82667284  1
  N  N43  1  0.08018289  0.11544479  0.59253348  1
  N  N44  1  0.89104951  0.20561326  0.32255084  1
  N  N45  1  0.78091236  0.09161898  0.06700858  1
  N  N46  1  0.55510248  0.20691143  0.82774199  1
  N  N47  1  0.44152639  0.10480424  0.58498593  1
  N  N48  1  0.22035176  0.54207975  0.32984160  1
  N  N49  1  0.11150036  0.42662648  0.08277161  1
  N  N50  1  0.89260090  0.53505135  0.82744093  1
  N  N51  1  0.78830774  0.41278975  0.58749169  1
  N  N52  1  0.55914219  0.53598517  0.34488765  1
  N  N53  1  0.44353073  0.42669433  0.07760161  1
  N  N54  1  0.22178951  0.53371952  0.82857239  1
  N  N55  1  0.11167242  0.42614272  0.57476674  1
  N  N56  1  0.88787778  0.53994204  0.33065274  1
  N  N57  1  0.78056517  0.42553495  0.07168644  1
  N  N58  1  0.54315093  0.56093409  0.83747937  1
  N  N59  1  0.43709786  0.43432169  0.58090784  1
  N  N60  1  0.22596676  0.86850264  0.39706298  1
  N  N61  1  0.10837413  0.75989129  0.07165724  1
  N  N62  1  0.89064102  0.86467765  0.80756102  1
  N  N63  1  0.79925611  0.76626490  0.59276850  1
  N  N64  1  0.55809539  0.86576352  0.38924949  1
  N  N65  1  0.43947172  0.76688251  0.13586219  1
  N  N66  1  0.24774475  0.85807230  0.85983816  1
  N  N67  1  0.08186388  0.76557094  0.59493227  1
  N  N68  1  0.88735094  0.87750415  0.32794329  1
  N  N69  1  0.78217553  0.75954109  0.07389597  1
  N  N70  1  0.54039333  0.85760536  0.86617325  1
  N  N71  1  0.43947255  0.77077717  0.64849120  1
