# generated using pymatgen
data_Al11BN12
_symmetry_space_group_name_H-M   'P 1'
_cell_length_a   9.26137212
_cell_length_b   9.31467545
_cell_length_c   9.93374278
_cell_angle_alpha   90.24451642
_cell_angle_beta   89.73948486
_cell_angle_gamma   60.06942640
_symmetry_Int_Tables_number   1
_chemical_formula_structural   Al11BN12
_chemical_formula_sum   'Al33 B3 N36'
_cell_volume   742.63115348
_cell_formula_units_Z   3
loop_
 _symmetry_equiv_pos_site_id
 _symmetry_equiv_pos_as_xyz
  1  'x, y, z'
loop_
 _atom_site_type_symbol
 _atom_site_label
 _atom_site_symmetry_multiplicity
 _atom_site_fract_x
 _atom_site_fract_y
 _atom_site_fract_z
 _atom_site_occupancy
  Al  Al0  1  0.10262826  0.10033313  0.40134341  1
  Al  Al1  1  0.22201562  0.20335173  0.14529538  1
  Al  Al2  1  0.78030798  0.09154353  0.87901513  1
  Al  Al3  1  0.44570085  0.09507944  0.39651356  1
  Al  Al4  1  0.55892366  0.20406816  0.14327616  1
  Al  Al5  1  0.11253281  0.09369319  0.88161574  1
  Al  Al6  1  0.21810300  0.20753768  0.64560667  1
  Al  Al7  1  0.78143843  0.09871280  0.40414720  1
  Al  Al8  1  0.88871322  0.20450148  0.14040550  1
  Al  Al9  1  0.44223113  0.09062150  0.89601783  1
  Al  Al10  1  0.56228631  0.20825981  0.64464394  1
  Al  Al11  1  0.11066154  0.42735179  0.39395371  1
  Al  Al12  1  0.22196336  0.54069432  0.14562406  1
  Al  Al13  1  0.77332699  0.43143283  0.89003572  1
  Al  Al14  1  0.89268598  0.53312580  0.64702114  1
  Al  Al15  1  0.44420402  0.42869396  0.39611809  1
  Al  Al16  1  0.55680456  0.53894866  0.14710360  1
  Al  Al17  1  0.11093627  0.42645336  0.89884316  1
  Al  Al18  1  0.21900218  0.53690078  0.64728044  1
  Al  Al19  1  0.77948709  0.42331469  0.40069210  1
  Al  Al20  1  0.88612116  0.53982447  0.14644081  1
  Al  Al21  1  0.44325303  0.43259968  0.89619231  1
  Al  Al22  1  0.55610999  0.54046767  0.64442186  1
  Al  Al23  1  0.10155404  0.76330436  0.40109222  1
  Al  Al24  1  0.22610041  0.87101514  0.11322675  1
  Al  Al25  1  0.77206039  0.75717116  0.89382181  1
  Al  Al26  1  0.44592107  0.76068241  0.39087965  1
  Al  Al27  1  0.55680752  0.87162570  0.14825656  1
  Al  Al28  1  0.11643489  0.75685813  0.88579101  1
  Al  Al29  1  0.21312191  0.87695115  0.62270539  1
  Al  Al30  1  0.78089822  0.76531847  0.40066105  1
  Al  Al31  1  0.88825572  0.87506831  0.14382964  1
  Al  Al32  1  0.55711757  0.87345557  0.64631045  1
  B  B33  1  0.88489623  0.20595703  0.64883580  1
  B  B34  1  0.90719788  0.83271455  0.66139396  1
  B  B35  1  0.44261548  0.76139977  0.86337499  1
  N  N36  1  0.22165185  0.20349440  0.33750877  1
  N  N37  1  0.10971085  0.09599762  0.07567466  1
  N  N38  1  0.88651037  0.20785511  0.81500853  1
  N  N39  1  0.78722586  0.11971128  0.59320217  1
  N  N40  1  0.55790113  0.20561377  0.33692928  1
  N  N41  1  0.44593280  0.09280069  0.08661738  1
  N  N42  1  0.22274101  0.20727446  0.83509954  1
  N  N43  1  0.08298990  0.11224123  0.59697219  1
  N  N44  1  0.88863747  0.20744190  0.32985937  1
  N  N45  1  0.78103733  0.09160402  0.07404124  1
  N  N46  1  0.55342671  0.20605267  0.83573830  1
  N  N47  1  0.44629588  0.09523248  0.58851589  1
  N  N48  1  0.21978829  0.54220602  0.33746663  1
  N  N49  1  0.11117966  0.42698873  0.08959385  1
  N  N50  1  0.89040989  0.53704954  0.83638541  1
  N  N51  1  0.78676755  0.41101413  0.59496141  1
  N  N52  1  0.55898712  0.53554841  0.33920151  1
  N  N53  1  0.44563147  0.42733266  0.08653853  1
  N  N54  1  0.22280052  0.53485404  0.83645862  1
  N  N55  1  0.11202407  0.42594583  0.58427592  1
  N  N56  1  0.88551049  0.54198895  0.34033106  1
  N  N57  1  0.77854887  0.42580787  0.08123372  1
  N  N58  1  0.53974851  0.56825878  0.83881421  1
  N  N59  1  0.43979999  0.43373031  0.58781957  1
  N  N60  1  0.21642824  0.87418127  0.36945915  1
  N  N61  1  0.10939836  0.76059487  0.07835633  1
  N  N62  1  0.88997526  0.86392601  0.81526925  1
  N  N63  1  0.79332027  0.77020213  0.59827199  1
  N  N64  1  0.56005532  0.87299867  0.34098765  1
  N  N65  1  0.44905522  0.75892115  0.10056399  1
  N  N66  1  0.24970931  0.85757945  0.83953926  1
  N  N67  1  0.08228766  0.76678932  0.59917632  1
  N  N68  1  0.88552135  0.87816590  0.33484834  1
  N  N69  1  0.77935694  0.76153363  0.08378820  1
  N  N70  1  0.54047744  0.85802291  0.83936172  1
  N  N71  1  0.44949192  0.76064451  0.58344805  1
