# generated using pymatgen
data_Al11BN12
_symmetry_space_group_name_H-M   'P 1'
_cell_length_a   9.25999266
_cell_length_b   9.25775031
_cell_length_c   9.89582468
_cell_angle_alpha   90.01317952
_cell_angle_beta   90.08356979
_cell_angle_gamma   59.99897618
_symmetry_Int_Tables_number   1
_chemical_formula_structural   Al11BN12
_chemical_formula_sum   'Al33 B3 N36'
_cell_volume   734.67238349
_cell_formula_units_Z   3
loop_
 _symmetry_equiv_pos_site_id
 _symmetry_equiv_pos_as_xyz
  1  'x, y, z'
loop_
 _atom_site_type_symbol
 _atom_site_label
 _atom_site_symmetry_multiplicity
 _atom_site_fract_x
 _atom_site_fract_y
 _atom_site_fract_z
 _atom_site_occupancy
  Al  Al0  1  0.11058378  0.09318378  0.31812938  1
  Al  Al1  1  0.22124180  0.20463151  0.06278020  1
  Al  Al2  1  0.78271323  0.09194031  0.80349284  1
  Al  Al3  1  0.44520876  0.09306251  0.31243051  1
  Al  Al4  1  0.55942434  0.20361914  0.06327122  1
  Al  Al5  1  0.10942027  0.09412911  0.80849234  1
  Al  Al6  1  0.21639746  0.20754329  0.56164069  1
  Al  Al7  1  0.78058980  0.09305739  0.32688236  1
  Al  Al8  1  0.88816629  0.20423141  0.06492719  1
  Al  Al9  1  0.44248960  0.09096411  0.81264595  1
  Al  Al10  1  0.56076307  0.20290012  0.56312072  1
  Al  Al11  1  0.11079350  0.42794288  0.31175258  1
  Al  Al12  1  0.22124731  0.54080426  0.06277512  1
  Al  Al13  1  0.77656867  0.42679956  0.80853116  1
  Al  Al14  1  0.89024743  0.53819399  0.56307107  1
  Al  Al15  1  0.44519756  0.42837483  0.31243672  1
  Al  Al16  1  0.55464665  0.54324077  0.05853474  1
  Al  Al17  1  0.11006994  0.42829995  0.81279286  1
  Al  Al18  1  0.21636982  0.54274448  0.56164495  1
  Al  Al19  1  0.77791676  0.42565373  0.31993998  1
  Al  Al20  1  0.88673521  0.53998272  0.06336564  1
  Al  Al21  1  0.44249428  0.43317796  0.81261928  1
  Al  Al22  1  0.55774278  0.53542468  0.56821034  1
  Al  Al23  1  0.11058309  0.76291985  0.31812608  1
  Al  Al24  1  0.22588881  0.87039824  0.05824243  1
  Al  Al25  1  0.77655555  0.76325937  0.80851235  1
  Al  Al26  1  0.44493199  0.76086192  0.31437965  1
  Al  Al27  1  0.55466265  0.86875771  0.05855104  1
  Al  Al28  1  0.10941117  0.76312571  0.80850582  1
  Al  Al29  1  0.21411075  0.87627730  0.56839124  1
  Al  Al30  1  0.77792697  0.76311217  0.32002634  1
  Al  Al31  1  0.88815586  0.87426924  0.06495255  1
  Al  Al32  1  0.55772861  0.87342403  0.56823867  1
  B  B33  1  0.89502437  0.19851597  0.55700314  1
  B  B34  1  0.89500796  0.87331475  0.55701778  1
  B  B35  1  0.44568960  0.76046749  0.80735628  1
  N  N36  1  0.22240942  0.20564730  0.37074252  1
  N  N37  1  0.11077450  0.09245502  0.12432439  1
  N  N38  1  0.88768345  0.20460276  0.87438998  1
  N  N39  1  0.79986850  0.08333987  0.60829343  1
  N  N40  1  0.55429905  0.20616711  0.37243460  1
  N  N41  1  0.44588087  0.09231984  0.11896911  1
  N  N42  1  0.21997514  0.20510731  0.87091213  1
  N  N43  1  0.08558864  0.10748839  0.61506638  1
  N  N44  1  0.89126928  0.20462031  0.39356336  1
  N  N45  1  0.77981663  0.09345878  0.13250675  1
  N  N46  1  0.55892903  0.20385381  0.86887874  1
  N  N47  1  0.44124721  0.09676918  0.62220016  1
  N  N48  1  0.22239657  0.53862712  0.37074717  1
  N  N49  1  0.11052559  0.42810212  0.12036166  1
  N  N50  1  0.88603847  0.54029737  0.86943782  1
  N  N51  1  0.78977344  0.40154688  0.61557258  1
  N  N52  1  0.55453825  0.54019605  0.37656183  1
  N  N53  1  0.44587873  0.42850003  0.11897543  1
  N  N54  1  0.21998646  0.54157712  0.87090406  1
  N  N55  1  0.11051201  0.42809390  0.62235998  1
  N  N56  1  0.88925000  0.53869558  0.37277039  1
  N  N57  1  0.77676640  0.42680770  0.12514688  1
  N  N58  1  0.54487898  0.56305006  0.86283618  1
  N  N59  1  0.44125812  0.42861122  0.62217225  1
  N  N60  1  0.22504067  0.87081840  0.37759472  1
  N  N61  1  0.11077838  0.76349379  0.12432192  1
  N  N62  1  0.88767188  0.87432573  0.87441207  1
  N  N63  1  0.78973404  0.77529840  0.61557643  1
  N  N64  1  0.55452710  0.87191273  0.37658674  1
  N  N65  1  0.44418712  0.76125792  0.12435805  1
  N  N66  1  0.24471972  0.86097185  0.86058934  1
  N  N67  1  0.08557985  0.77365752  0.61508320  1
  N  N68  1  0.89127896  0.87081830  0.39357511  1
  N  N69  1  0.77676599  0.76314754  0.12521210  1
  N  N70  1  0.54487559  0.85869557  0.86284952  1
  N  N71  1  0.44463510  0.76098678  0.64172823  1
