# generated using pymatgen
data_Al11BN12
_symmetry_space_group_name_H-M   'P 1'
_cell_length_a   9.26463752
_cell_length_b   9.32979861
_cell_length_c   10.08377827
_cell_angle_alpha   89.48934581
_cell_angle_beta   90.31716624
_cell_angle_gamma   60.06071232
_symmetry_Int_Tables_number   1
_chemical_formula_structural   Al11BN12
_chemical_formula_sum   'Al33 B3 N36'
_cell_volume   755.22074509
_cell_formula_units_Z   3
loop_
 _symmetry_equiv_pos_site_id
 _symmetry_equiv_pos_as_xyz
  1  'x, y, z'
loop_
 _atom_site_type_symbol
 _atom_site_label
 _atom_site_symmetry_multiplicity
 _atom_site_fract_x
 _atom_site_fract_y
 _atom_site_fract_z
 _atom_site_occupancy
  Al  Al0  1  0.11557354  0.09177138  0.31812743  1
  Al  Al1  1  0.22160948  0.20528784  0.07060570  1
  Al  Al2  1  0.78012928  0.09981360  0.81962692  1
  Al  Al3  1  0.44701628  0.09369624  0.32406071  1
  Al  Al4  1  0.55667326  0.20350831  0.07273591  1
  Al  Al5  1  0.10889497  0.09417163  0.82602857  1
  Al  Al6  1  0.21725262  0.20707305  0.57218001  1
  Al  Al7  1  0.78151780  0.09148285  0.32862823  1
  Al  Al8  1  0.88932325  0.20147501  0.09723404  1
  Al  Al9  1  0.44440187  0.09093050  0.82197282  1
  Al  Al10  1  0.56341735  0.21112426  0.57584908  1
  Al  Al11  1  0.11989963  0.42229404  0.32161902  1
  Al  Al12  1  0.21937543  0.53943140  0.07234442  1
  Al  Al13  1  0.77799797  0.43067614  0.89304161  1
  Al  Al14  1  0.88952918  0.53587086  0.64260201  1
  Al  Al15  1  0.45092643  0.42623749  0.32308353  1
  Al  Al16  1  0.54304767  0.54919148  0.07000764  1
  Al  Al17  1  0.12002607  0.42299135  0.82328475  1
  Al  Al18  1  0.22154560  0.53685444  0.56822604  1
  Al  Al19  1  0.78745369  0.41755905  0.39354616  1
  Al  Al20  1  0.87802169  0.54310035  0.14403567  1
  Al  Al21  1  0.44182294  0.43512007  0.82308641  1
  Al  Al22  1  0.55143419  0.54232850  0.58318342  1
  Al  Al23  1  0.11694150  0.76069918  0.32264729  1
  Al  Al24  1  0.22477390  0.86919065  0.06443765  1
  Al  Al25  1  0.77413925  0.75543704  0.88580067  1
  Al  Al26  1  0.44478611  0.76064578  0.32614810  1
  Al  Al27  1  0.54293505  0.87437160  0.07035583  1
  Al  Al28  1  0.10556286  0.76225793  0.81537977  1
  Al  Al29  1  0.20477432  0.88315558  0.57622183  1
  Al  Al30  1  0.77963604  0.75605638  0.39002476  1
  Al  Al31  1  0.88974919  0.87546321  0.06875158  1
  Al  Al32  1  0.55351666  0.87709606  0.58205042  1
  B  B33  1  0.88358877  0.21477474  0.61357851  1
  B  B34  1  0.92127710  0.82139302  0.55055702  1
  B  B35  1  0.43986982  0.76306609  0.81821121  1
  N  N36  1  0.22419140  0.20343125  0.38419387  1
  N  N37  1  0.12220670  0.08502184  0.12830450  1
  N  N38  1  0.89367318  0.19799903  0.89479143  1
  N  N39  1  0.78325599  0.13519055  0.63517443  1
  N  N40  1  0.55851795  0.20426198  0.38633981  1
  N  N41  1  0.44478967  0.09272548  0.13333363  1
  N  N42  1  0.22302444  0.20396650  0.88186584  1
  N  N43  1  0.07952437  0.11345091  0.63238384  1
  N  N44  1  0.89103079  0.20716423  0.33809440  1
  N  N45  1  0.77512690  0.08512060  0.13823304  1
  N  N46  1  0.55474841  0.20709636  0.88222417  1
  N  N47  1  0.44728090  0.09717906  0.63405951  1
  N  N48  1  0.22550364  0.53753036  0.38057280  1
  N  N49  1  0.11404686  0.42412256  0.13107052  1
  N  N50  1  0.88548367  0.53918304  0.82968089  1
  N  N51  1  0.79598314  0.40494093  0.58969700  1
  N  N52  1  0.55192094  0.54316610  0.39145189  1
  N  N53  1  0.44506142  0.42698769  0.13237276  1
  N  N54  1  0.21883428  0.54279774  0.88294052  1
  N  N55  1  0.12039855  0.42251768  0.63192448  1
  N  N56  1  0.88507232  0.54099036  0.33491063  1
  N  N57  1  0.77292008  0.43360413  0.08373632  1
  N  N58  1  0.53612211  0.56899018  0.87410632  1
  N  N59  1  0.43846152  0.43421961  0.63547545  1
  N  N60  1  0.22380283  0.87293896  0.38859812  1
  N  N61  1  0.11102770  0.76144335  0.13295470  1
  N  N62  1  0.88749607  0.87731927  0.87810842  1
  N  N63  1  0.79962671  0.76020772  0.58575737  1
  N  N64  1  0.54946489  0.87479674  0.38919371  1
  N  N65  1  0.44086471  0.76126677  0.13837566  1
  N  N66  1  0.24131622  0.85942228  0.86846473  1
  N  N67  1  0.08599398  0.76642297  0.62155642  1
  N  N68  1  0.90156302  0.86836075  0.40193321  1
  N  N69  1  0.77526214  0.75870390  0.08172583  1
  N  N70  1  0.53460324  0.86238518  0.87407108  1
  N  N71  1  0.43996487  0.76615177  0.65291086  1
