# generated using pymatgen
data_Al11BN12
_symmetry_space_group_name_H-M   'P 1'
_cell_length_a   9.27185723
_cell_length_b   9.28203434
_cell_length_c   10.12543867
_cell_angle_alpha   90.00400018
_cell_angle_beta   90.43406596
_cell_angle_gamma   59.95629475
_symmetry_Int_Tables_number   1
_chemical_formula_structural   Al11BN12
_chemical_formula_sum   'Al33 B3 N36'
_cell_volume   754.30410677
_cell_formula_units_Z   3
loop_
 _symmetry_equiv_pos_site_id
 _symmetry_equiv_pos_as_xyz
  1  'x, y, z'
loop_
 _atom_site_type_symbol
 _atom_site_label
 _atom_site_symmetry_multiplicity
 _atom_site_fract_x
 _atom_site_fract_y
 _atom_site_fract_z
 _atom_site_occupancy
  Al  Al0  1  0.12172341  0.08789535  0.32012486  1
  Al  Al1  1  0.22094627  0.20664668  0.07170835  1
  Al  Al2  1  0.77015122  0.09826338  0.83091937  1
  Al  Al3  1  0.45077145  0.08991290  0.32317919  1
  Al  Al4  1  0.55693370  0.20486154  0.06769864  1
  Al  Al5  1  0.11740566  0.09032988  0.81885578  1
  Al  Al6  1  0.21481388  0.20767713  0.56974162  1
  Al  Al7  1  0.78798603  0.08934243  0.38133101  1
  Al  Al8  1  0.88259441  0.20847896  0.13829791  1
  Al  Al9  1  0.43890750  0.09135474  0.82067777  1
  Al  Al10  1  0.55629606  0.20517747  0.57741920  1
  Al  Al11  1  0.11846964  0.42410061  0.32201559  1
  Al  Al12  1  0.22094788  0.53906911  0.07170876  1
  Al  Al13  1  0.77626595  0.43198729  0.88354751  1
  Al  Al14  1  0.88450218  0.54108157  0.64182942  1
  Al  Al15  1  0.45077152  0.42598078  0.32318013  1
  Al  Al16  1  0.54597915  0.54686250  0.06763703  1
  Al  Al17  1  0.11669559  0.42498975  0.82112179  1
  Al  Al18  1  0.21481256  0.54416868  0.56974252  1
  Al  Al19  1  0.78951014  0.41712112  0.40098333  1
  Al  Al20  1  0.87820289  0.54423031  0.14158896  1
  Al  Al21  1  0.43890638  0.43640729  0.82067740  1
  Al  Al22  1  0.55213252  0.53894770  0.58385350  1
  Al  Al23  1  0.12172300  0.75705020  0.32012616  1
  Al  Al24  1  0.22603327  0.87031402  0.06620150  1
  Al  Al25  1  0.77626477  0.75842652  0.88354798  1
  Al  Al26  1  0.45091903  0.75787284  0.32656580  1
  Al  Al27  1  0.54597672  0.87381459  0.06763659  1
  Al  Al28  1  0.11740147  0.75894053  0.81885520  1
  Al  Al29  1  0.20918681  0.87873483  0.57600432  1
  Al  Al30  1  0.78950994  0.76003988  0.40098359  1
  Al  Al31  1  0.88259569  0.87558531  0.13829868  1
  Al  Al32  1  0.55213384  0.87557443  0.58385125  1
  B  B33  1  0.89195109  0.20674201  0.65294011  1
  B  B34  1  0.89194478  0.86798775  0.65293702  1
  B  B35  1  0.44184565  0.76240918  0.81890398  1
  N  N36  1  0.22547785  0.20352710  0.38252257  1
  N  N37  1  0.11896497  0.08889926  0.12890425  1
  N  N38  1  0.88065335  0.21581204  0.81253128  1
  N  N39  1  0.79703634  0.08480754  0.61170001  1
  N  N40  1  0.55594450  0.20535534  0.38762082  1
  N  N41  1  0.44704985  0.09281975  0.13258007  1
  N  N42  1  0.21880537  0.20660811  0.88390846  1
  N  N43  1  0.09177569  0.10500100  0.62932082  1
  N  N44  1  0.88845912  0.20758106  0.32902290  1
  N  N45  1  0.78186165  0.09240447  0.08903770  1
  N  N46  1  0.54526645  0.21069643  0.87679157  1
  N  N47  1  0.43947416  0.09723907  0.63469868  1
  N  N48  1  0.22547884  0.53765322  0.38252338  1
  N  N49  1  0.11415035  0.42626811  0.13275317  1
  N  N50  1  0.88351332  0.54157066  0.82774304  1
  N  N51  1  0.79524853  0.39773091  0.59151509  1
  N  N52  1  0.55395693  0.54067514  0.39250284  1
  N  N53  1  0.44705056  0.42680794  0.13258055  1
  N  N54  1  0.21880533  0.54125187  0.88390885  1
  N  N55  1  0.11647425  0.42510290  0.63048312  1
  N  N56  1  0.88241585  0.54211646  0.33570808  1
  N  N57  1  0.78102000  0.42559465  0.07268648  1
  N  N58  1  0.53456732  0.56941239  0.87388146  1
  N  N59  1  0.43947536  0.42996133  0.63469756  1
  N  N60  1  0.22640219  0.87012857  0.38809932  1
  N  N61  1  0.11896608  0.75881996  0.12890591  1
  N  N62  1  0.88065280  0.87019252  0.81253318  1
  N  N63  1  0.79524836  0.77368932  0.59151238  1
  N  N64  1  0.55395681  0.87202372  0.39250150  1
  N  N65  1  0.44625152  0.76021280  0.13875772  1
  N  N66  1  0.24221291  0.86222519  0.87387104  1
  N  N67  1  0.09177466  0.76990171  0.62932066  1
  N  N68  1  0.88845899  0.87060683  0.32902301  1
  N  N69  1  0.78101763  0.76005769  0.07268694  1
  N  N70  1  0.53456539  0.86268080  0.87388399  1
  N  N71  1  0.44095568  0.76285905  0.65456963  1
