# generated using pymatgen
data_Al11BN12
_symmetry_space_group_name_H-M   'P 1'
_cell_length_a   9.25919066
_cell_length_b   9.25703026
_cell_length_c   9.89671567
_cell_angle_alpha   90.00006139
_cell_angle_beta   90.07521762
_cell_angle_gamma   60.00765805
_symmetry_Int_Tables_number   1
_chemical_formula_structural   Al11BN12
_chemical_formula_sum   'Al33 B3 N36'
_cell_volume   734.68207731
_cell_formula_units_Z   3
loop_
 _symmetry_equiv_pos_site_id
 _symmetry_equiv_pos_as_xyz
  1  'x, y, z'
loop_
 _atom_site_type_symbol
 _atom_site_label
 _atom_site_symmetry_multiplicity
 _atom_site_fract_x
 _atom_site_fract_y
 _atom_site_fract_z
 _atom_site_occupancy
  Al  Al0  1  0.11061208  0.09317201  0.30511317  1
  Al  Al1  1  0.22136361  0.20454954  0.04973272  1
  Al  Al2  1  0.78282340  0.09192177  0.79044335  1
  Al  Al3  1  0.44523916  0.09306587  0.29942108  1
  Al  Al4  1  0.55952807  0.20356929  0.05026819  1
  Al  Al5  1  0.10954379  0.09406348  0.79544453  1
  Al  Al6  1  0.21644294  0.20753941  0.54860296  1
  Al  Al7  1  0.78064450  0.09301122  0.31389984  1
  Al  Al8  1  0.88827076  0.20416256  0.05188013  1
  Al  Al9  1  0.44261834  0.09091165  0.79958116  1
  Al  Al10  1  0.56082876  0.20291892  0.55009556  1
  Al  Al11  1  0.11081905  0.42792358  0.29862295  1
  Al  Al12  1  0.22136378  0.54075299  0.04973278  1
  Al  Al13  1  0.77668826  0.42676284  0.79547219  1
  Al  Al14  1  0.89032017  0.53817288  0.54993263  1
  Al  Al15  1  0.44523916  0.42836160  0.29942114  1
  Al  Al16  1  0.55473186  0.54320401  0.04547585  1
  Al  Al17  1  0.11020656  0.42822998  0.79975502  1
  Al  Al18  1  0.21644273  0.54268454  0.54860286  1
  Al  Al19  1  0.77795821  0.42563385  0.30680078  1
  Al  Al20  1  0.88685529  0.53990538  0.05018011  1
  Al  Al21  1  0.44261830  0.43313711  0.79958105  1
  Al  Al22  1  0.55783172  0.53542852  0.55515252  1
  Al  Al23  1  0.11061219  0.76288246  0.30511319  1
  Al  Al24  1  0.22596865  0.87034861  0.04521704  1
  Al  Al25  1  0.77668806  0.76321534  0.79547223  1
  Al  Al26  1  0.44496113  0.76085299  0.30132656  1
  Al  Al27  1  0.55473205  0.86873052  0.04547586  1
  Al  Al28  1  0.10954358  0.76305952  0.79544449  1
  Al  Al29  1  0.21416823  0.87624944  0.55535432  1
  Al  Al30  1  0.77795847  0.76307441  0.30680081  1
  Al  Al31  1  0.88827069  0.87423357  0.05188011  1
  Al  Al32  1  0.55783200  0.87340630  0.55515260  1
  B  B33  1  0.89505234  0.19848796  0.54398008  1
  B  B34  1  0.89505246  0.87312665  0.54398005  1
  B  B35  1  0.44580906  0.76042879  0.79431279  1
  N  N36  1  0.22243066  0.20565853  0.35771489  1
  N  N37  1  0.11086067  0.09238777  0.11131356  1
  N  N38  1  0.88781466  0.20455919  0.86135655  1
  N  N39  1  0.79990403  0.08338133  0.59526240  1
  N  N40  1  0.55434548  0.20616046  0.35943102  1
  N  N41  1  0.44597195  0.09225413  0.10597228  1
  N  N42  1  0.22011965  0.20502576  0.85787862  1
  N  N43  1  0.08564591  0.10744591  0.60203741  1
  N  N44  1  0.89129742  0.20463140  0.38053408  1
  N  N45  1  0.77991251  0.09337733  0.11951522  1
  N  N46  1  0.55905030  0.20380837  0.85587353  1
  N  N47  1  0.44131951  0.09673766  0.60914727  1
  N  N48  1  0.22243054  0.53857720  0.35771479  1
  N  N49  1  0.11061076  0.42802790  0.10725436  1
  N  N50  1  0.88617751  0.54024439  0.85636751  1
  N  N51  1  0.78983926  0.40156753  0.60253798  1
  N  N52  1  0.55460502  0.54018086  0.36350913  1
  N  N53  1  0.44597195  0.42844071  0.10597239  1
  N  N54  1  0.22011964  0.54152111  0.85787859  1
  N  N55  1  0.11054302  0.42806195  0.60933960  1
  N  N56  1  0.88928189  0.53869224  0.35964200  1
  N  N57  1  0.77686156  0.42674944  0.11203131  1
  N  N58  1  0.54500240  0.56301480  0.84979690  1
  N  N59  1  0.44131940  0.42860981  0.60914716  1
  N  N60  1  0.22507733  0.87079464  0.36457440  1
  N  N61  1  0.11086065  0.76341804  0.11131359  1
  N  N62  1  0.88781440  0.87429294  0.86135647  1
  N  N63  1  0.78983935  0.77525952  0.60253802  1
  N  N64  1  0.55460526  0.87188066  0.36350918  1
  N  N65  1  0.44426299  0.76120189  0.11131727  1
  N  N66  1  0.24484188  0.86091233  0.84756069  1
  N  N67  1  0.08564597  0.77357516  0.60203736  1
  N  N68  1  0.89129751  0.87073785  0.38053403  1
  N  N69  1  0.77686178  0.76305563  0.11203122  1
  N  N70  1  0.54500226  0.85864941  0.84979690  1
  N  N71  1  0.44471902  0.76097387  0.62868354  1
