# generated using pymatgen
data_Al11BN12
_symmetry_space_group_name_H-M   'P 1'
_cell_length_a   9.29882930
_cell_length_b   9.32970835
_cell_length_c   10.16123302
_cell_angle_alpha   90.03775307
_cell_angle_beta   90.42735873
_cell_angle_gamma   59.54087736
_symmetry_Int_Tables_number   1
_chemical_formula_structural   Al11BN12
_chemical_formula_sum   'Al33 B3 N36'
_cell_volume   759.85473960
_cell_formula_units_Z   3
loop_
 _symmetry_equiv_pos_site_id
 _symmetry_equiv_pos_as_xyz
  1  'x, y, z'
loop_
 _atom_site_type_symbol
 _atom_site_label
 _atom_site_symmetry_multiplicity
 _atom_site_fract_x
 _atom_site_fract_y
 _atom_site_fract_z
 _atom_site_occupancy
  Al  Al0  1  0.11985385  0.08771777  0.32102419  1
  Al  Al1  1  0.22044716  0.20786138  0.07180651  1
  Al  Al2  1  0.77737033  0.08776594  0.81073996  1
  Al  Al3  1  0.44865181  0.09003778  0.32174907  1
  Al  Al4  1  0.55567744  0.20554518  0.06859812  1
  Al  Al5  1  0.12267091  0.08816603  0.82264558  1
  Al  Al6  1  0.21784062  0.20956854  0.56736650  1
  Al  Al7  1  0.77590545  0.08900420  0.32096608  1
  Al  Al8  1  0.88384626  0.21374020  0.14007710  1
  Al  Al9  1  0.44321692  0.09061752  0.82054789  1
  Al  Al10  1  0.56113041  0.19295626  0.57191553  1
  Al  Al11  1  0.11866208  0.42553113  0.32168167  1
  Al  Al12  1  0.22262233  0.53884522  0.07148792  1
  Al  Al13  1  0.77587646  0.43738802  0.88462564  1
  Al  Al14  1  0.88876952  0.54497998  0.64249994  1
  Al  Al15  1  0.44994203  0.42642447  0.32474070  1
  Al  Al16  1  0.54533393  0.54700996  0.06748945  1
  Al  Al17  1  0.12030615  0.42493681  0.82182134  1
  Al  Al18  1  0.21727496  0.54303963  0.56998849  1
  Al  Al19  1  0.79146957  0.41481189  0.40132082  1
  Al  Al20  1  0.87777633  0.54451277  0.14434550  1
  Al  Al21  1  0.44405428  0.43233806  0.82047906  1
  Al  Al22  1  0.55144331  0.53853956  0.58527446  1
  Al  Al23  1  0.11312844  0.76071990  0.31839960  1
  Al  Al24  1  0.22765953  0.86894154  0.06623250  1
  Al  Al25  1  0.77718855  0.75932386  0.89055490  1
  Al  Al26  1  0.44807368  0.75703264  0.32830105  1
  Al  Al27  1  0.54399749  0.87369497  0.07017970  1
  Al  Al28  1  0.11022050  0.76227076  0.82331130  1
  Al  Al29  1  0.20030093  0.88297959  0.57662128  1
  Al  Al30  1  0.78589437  0.75911823  0.39361675  1
  Al  Al31  1  0.89166961  0.87498023  0.08413179  1
  Al  Al32  1  0.54866525  0.87467448  0.58169025  1
  B  B33  1  0.91123382  0.23891830  0.66387733  1
  B  B34  1  0.88185866  0.86838581  0.60735632  1
  B  B35  1  0.44087415  0.76266589  0.81874031  1
  N  N36  1  0.22358032  0.20423623  0.38120205  1
  N  N37  1  0.11861654  0.08895461  0.12678622  1
  N  N38  1  0.88153432  0.22147038  0.80952029  1
  N  N39  1  0.78017514  0.04724095  0.62968198  1
  N  N40  1  0.55571399  0.20378233  0.38425562  1
  N  N41  1  0.44526332  0.09376662  0.13188426  1
  N  N42  1  0.22125973  0.20678841  0.88446476  1
  N  N43  1  0.09163980  0.11347083  0.63129617  1
  N  N44  1  0.88839803  0.20846801  0.32946816  1
  N  N45  1  0.77210207  0.09809075  0.12807080  1
  N  N46  1  0.55576376  0.20571842  0.87938035  1
  N  N47  1  0.43625717  0.09549352  0.63435508  1
  N  N48  1  0.22500487  0.53887892  0.38317214  1
  N  N49  1  0.11456594  0.42764070  0.13238299  1
  N  N50  1  0.88567971  0.54466724  0.82798262  1
  N  N51  1  0.80100249  0.40276482  0.59364049  1
  N  N52  1  0.55528341  0.53897933  0.39550618  1
  N  N53  1  0.44752418  0.42766679  0.13322109  1
  N  N54  1  0.22307116  0.53963332  0.88289631  1
  N  N55  1  0.11982889  0.42493882  0.63144466  1
  N  N56  1  0.88271904  0.53870428  0.33551079  1
  N  N57  1  0.78142302  0.42655652  0.07139260  1
  N  N58  1  0.53547830  0.56964175  0.87324049  1
  N  N59  1  0.44603070  0.42248826  0.63412813  1
  N  N60  1  0.22313238  0.87032115  0.38977959  1
  N  N61  1  0.12079689  0.75892337  0.12896955  1
  N  N62  1  0.89399776  0.87822551  0.88970741  1
  N  N63  1  0.79299803  0.76613001  0.58816002  1
  N  N64  1  0.54985779  0.87244280  0.39124951  1
  N  N65  1  0.44538490  0.75936137  0.14013020  1
  N  N66  1  0.24386132  0.86064908  0.87271497  1
  N  N67  1  0.07874728  0.77385728  0.63165923  1
  N  N68  1  0.89111961  0.86744129  0.34753588  1
  N  N69  1  0.77550701  0.75818203  0.08006459  1
  N  N70  1  0.53540137  0.86276209  0.87443277  1
  N  N71  1  0.43697390  0.76329184  0.65448208  1
