# generated using pymatgen
data_Al11BN12
_symmetry_space_group_name_H-M   'P 1'
_cell_length_a   9.28471320
_cell_length_b   9.34215477
_cell_length_c   9.95810645
_cell_angle_alpha   90.26225741
_cell_angle_beta   89.82907854
_cell_angle_gamma   60.07302974
_symmetry_Int_Tables_number   1
_chemical_formula_structural   Al11BN12
_chemical_formula_sum   'Al33 B3 N36'
_cell_volume   748.56497659
_cell_formula_units_Z   3
loop_
 _symmetry_equiv_pos_site_id
 _symmetry_equiv_pos_as_xyz
  1  'x, y, z'
loop_
 _atom_site_type_symbol
 _atom_site_label
 _atom_site_symmetry_multiplicity
 _atom_site_fract_x
 _atom_site_fract_y
 _atom_site_fract_z
 _atom_site_occupancy
  Al  Al0  1  0.10271681  0.10118147  0.39494584  1
  Al  Al1  1  0.22142329  0.20239654  0.13678848  1
  Al  Al2  1  0.78036346  0.09201941  0.87071370  1
  Al  Al3  1  0.44607895  0.09429945  0.39085041  1
  Al  Al4  1  0.55920438  0.20290898  0.13529752  1
  Al  Al5  1  0.10909649  0.09852568  0.87107161  1
  Al  Al6  1  0.21646102  0.20945626  0.63793316  1
  Al  Al7  1  0.78119657  0.09884986  0.39625945  1
  Al  Al8  1  0.89102468  0.20219858  0.13246069  1
  Al  Al9  1  0.44270620  0.09278935  0.88296520  1
  Al  Al10  1  0.56185046  0.21120318  0.63701608  1
  Al  Al11  1  0.11165742  0.42602382  0.38517316  1
  Al  Al12  1  0.22147327  0.54135459  0.13743170  1
  Al  Al13  1  0.77242846  0.43179005  0.88199890  1
  Al  Al14  1  0.89350485  0.53214614  0.63917879  1
  Al  Al15  1  0.44460995  0.42750059  0.38828870  1
  Al  Al16  1  0.56017343  0.53159444  0.13918066  1
  Al  Al17  1  0.11148105  0.42622110  0.89126184  1
  Al  Al18  1  0.21960671  0.53584431  0.63940431  1
  Al  Al19  1  0.77993307  0.42341053  0.39276142  1
  Al  Al20  1  0.88766530  0.53849822  0.13835634  1
  Al  Al21  1  0.44474912  0.43292687  0.88826173  1
  Al  Al22  1  0.55812249  0.53457144  0.63911267  1
  Al  Al23  1  0.10196497  0.76048104  0.39495711  1
  Al  Al24  1  0.23470778  0.86659370  0.05823863  1
  Al  Al25  1  0.77360997  0.75669021  0.88187165  1
  Al  Al26  1  0.43786422  0.76523663  0.32876795  1
  Al  Al27  1  0.55767994  0.87222572  0.11969401  1
  Al  Al28  1  0.11448630  0.75445739  0.87581079  1
  Al  Al29  1  0.20769826  0.87989825  0.59303876  1
  Al  Al30  1  0.78297784  0.76264565  0.39401606  1
  Al  Al31  1  0.89051255  0.87422280  0.13606276  1
  Al  Al32  1  0.55915615  0.87818680  0.63309785  1
  B  B33  1  0.88352961  0.20772378  0.64093087  1
  B  B34  1  0.90992080  0.82628751  0.65567055  1
  B  B35  1  0.43975150  0.76493280  0.80308428  1
  N  N36  1  0.22280581  0.20125805  0.32908450  1
  N  N37  1  0.10921100  0.09724121  0.06664868  1
  N  N38  1  0.88475939  0.20936344  0.80672929  1
  N  N39  1  0.78415129  0.12626745  0.58373435  1
  N  N40  1  0.55778673  0.20417812  0.32835229  1
  N  N41  1  0.44432901  0.09468856  0.07555008  1
  N  N42  1  0.22195264  0.20866945  0.82625188  1
  N  N43  1  0.07909884  0.11671277  0.59132488  1
  N  N44  1  0.89034642  0.20574470  0.32182686  1
  N  N45  1  0.78121188  0.09085572  0.06625310  1
  N  N46  1  0.55418151  0.20775874  0.82752568  1
  N  N47  1  0.44375495  0.10104451  0.58228055  1
  N  N48  1  0.22031381  0.54183218  0.32908043  1
  N  N49  1  0.11203743  0.42624973  0.08177674  1
  N  N50  1  0.89160957  0.53568553  0.82824820  1
  N  N51  1  0.78550189  0.41507209  0.58541236  1
  N  N52  1  0.56014125  0.53243508  0.33332012  1
  N  N53  1  0.44517011  0.42652339  0.07895118  1
  N  N54  1  0.22393172  0.53330186  0.82804815  1
  N  N55  1  0.11179143  0.42646763  0.57516960  1
  N  N56  1  0.88707038  0.54058989  0.33115597  1
  N  N57  1  0.77924836  0.42537519  0.07381236  1
  N  N58  1  0.54425792  0.56019491  0.83160493  1
  N  N59  1  0.43831837  0.43501635  0.57838171  1
  N  N60  1  0.22312308  0.86951415  0.39559292  1
  N  N61  1  0.10948940  0.75939893  0.06978294  1
  N  N62  1  0.89016087  0.86407107  0.80704525  1
  N  N63  1  0.79641771  0.76759949  0.59123005  1
  N  N64  1  0.56001708  0.87019912  0.35284539  1
  N  N65  1  0.43981841  0.76328002  0.13365792  1
  N  N66  1  0.24955828  0.85814937  0.85817076  1
  N  N67  1  0.08085258  0.76531690  0.59403930  1
  N  N68  1  0.88709927  0.87703517  0.32738228  1
  N  N69  1  0.78176393  0.75942976  0.07366275  1
  N  N70  1  0.54518539  0.86280328  0.83347070  1
  N  N71  1  0.43478723  0.76860011  0.64032851  1
