# generated using pymatgen
data_Al11BN12
_symmetry_space_group_name_H-M   'P 1'
_cell_length_a   9.29663251
_cell_length_b   9.29368610
_cell_length_c   9.87995380
_cell_angle_alpha   90.17682370
_cell_angle_beta   90.20901218
_cell_angle_gamma   59.89611362
_symmetry_Int_Tables_number   1
_chemical_formula_structural   Al11BN12
_chemical_formula_sum   'Al33 B3 N36'
_cell_volume   738.48261706
_cell_formula_units_Z   3
loop_
 _symmetry_equiv_pos_site_id
 _symmetry_equiv_pos_as_xyz
  1  'x, y, z'
loop_
 _atom_site_type_symbol
 _atom_site_label
 _atom_site_symmetry_multiplicity
 _atom_site_fract_x
 _atom_site_fract_y
 _atom_site_fract_z
 _atom_site_occupancy
  Al  Al0  1  0.11172711  0.09216934  0.31759783  1
  Al  Al1  1  0.21997714  0.20555980  0.06296417  1
  Al  Al2  1  0.78249457  0.09190815  0.80384268  1
  Al  Al3  1  0.44723707  0.09098766  0.31121950  1
  Al  Al4  1  0.55903632  0.20354295  0.06288743  1
  Al  Al5  1  0.10873052  0.09506693  0.80863216  1
  Al  Al6  1  0.21829609  0.20520871  0.56077900  1
  Al  Al7  1  0.78111203  0.09319822  0.32423160  1
  Al  Al8  1  0.88799194  0.20455507  0.06490622  1
  Al  Al9  1  0.44103689  0.09233481  0.81370826  1
  Al  Al10  1  0.56097920  0.20200528  0.56317133  1
  Al  Al11  1  0.11872369  0.42390605  0.31880967  1
  Al  Al12  1  0.22039164  0.54117982  0.06246272  1
  Al  Al13  1  0.77385109  0.42479518  0.80741142  1
  Al  Al14  1  0.89012917  0.53613047  0.59336878  1
  Al  Al15  1  0.44638717  0.42773740  0.31147714  1
  Al  Al16  1  0.55422593  0.54346569  0.05865191  1
  Al  Al17  1  0.11192003  0.42750774  0.81010705  1
  Al  Al18  1  0.21782571  0.54395364  0.56100592  1
  Al  Al19  1  0.77665712  0.42225559  0.32794001  1
  Al  Al20  1  0.88447866  0.54299229  0.11966968  1
  Al  Al21  1  0.44169280  0.43310434  0.81301717  1
  Al  Al22  1  0.55631823  0.53437061  0.56837121  1
  Al  Al23  1  0.11237116  0.76316206  0.31658307  1
  Al  Al24  1  0.22577419  0.87068977  0.05802959  1
  Al  Al25  1  0.77375640  0.76662077  0.80622722  1
  Al  Al26  1  0.44581588  0.76056249  0.31443687  1
  Al  Al27  1  0.55467570  0.86853342  0.05815301  1
  Al  Al28  1  0.10892629  0.76338785  0.80880967  1
  Al  Al29  1  0.21399590  0.87664870  0.56815051  1
  Al  Al30  1  0.77824258  0.76646847  0.34153923  1
  Al  Al31  1  0.88709865  0.87394174  0.06440935  1
  Al  Al32  1  0.55374849  0.87504230  0.57109285  1
  B  B33  1  0.89402963  0.19803121  0.55643677  1
  B  B34  1  0.89628942  0.87912462  0.55687785  1
  B  B35  1  0.44436373  0.76064239  0.80744807  1
  N  N36  1  0.22574402  0.20161136  0.37031156  1
  N  N37  1  0.11043188  0.09298821  0.12375687  1
  N  N38  1  0.88718741  0.20439662  0.87454235  1
  N  N39  1  0.80118937  0.08217364  0.60827319  1
  N  N40  1  0.55531161  0.20518623  0.37155637  1
  N  N41  1  0.44516431  0.09273163  0.11774841  1
  N  N42  1  0.21869831  0.20634768  0.87120889  1
  N  N43  1  0.08613507  0.10756886  0.61490434  1
  N  N44  1  0.89314379  0.20131043  0.39307801  1
  N  N45  1  0.77976194  0.09385793  0.13060417  1
  N  N46  1  0.55864156  0.20395105  0.86841989  1
  N  N47  1  0.44104353  0.09744597  0.62334858  1
  N  N48  1  0.22496740  0.53998291  0.37045687  1
  N  N49  1  0.11368482  0.42710977  0.12390176  1
  N  N50  1  0.88403142  0.54058124  0.82823756  1
  N  N51  1  0.78766368  0.39480867  0.61200578  1
  N  N52  1  0.55303195  0.54070084  0.37721224  1
  N  N53  1  0.44544583  0.42870830  0.11803520  1
  N  N54  1  0.21922229  0.54170568  0.87060140  1
  N  N55  1  0.11844604  0.42446332  0.61686660  1
  N  N56  1  0.89148666  0.53633324  0.36098447  1
  N  N57  1  0.77375855  0.42477874  0.12924328  1
  N  N58  1  0.54366029  0.56282934  0.86324622  1
  N  N59  1  0.44165179  0.42770178  0.62236632  1
  N  N60  1  0.22622562  0.87044711  0.37690226  1
  N  N61  1  0.11031132  0.76408705  0.12292183  1
  N  N62  1  0.88682482  0.87441723  0.87328616  1
  N  N63  1  0.78693683  0.78058010  0.60895413  1
  N  N64  1  0.55180426  0.87289089  0.37967022  1
  N  N65  1  0.44426563  0.76150605  0.12415073  1
  N  N66  1  0.24399300  0.86152240  0.86062178  1
  N  N67  1  0.08627505  0.77468802  0.61544495  1
  N  N68  1  0.89541653  0.87407668  0.39443180  1
  N  N69  1  0.77270814  0.77020373  0.12927714  1
  N  N70  1  0.54305012  0.85985175  0.86201696  1
  N  N71  1  0.44414007  0.75978140  0.64226809  1
