# generated using pymatgen
data_Al11BN12
_symmetry_space_group_name_H-M   'P 1'
_cell_length_a   9.29838417
_cell_length_b   9.28243203
_cell_length_c   9.96578427
_cell_angle_alpha   90.03316090
_cell_angle_beta   90.30961867
_cell_angle_gamma   59.95859813
_symmetry_Int_Tables_number   1
_chemical_formula_structural   Al11BN12
_chemical_formula_sum   'Al33 B3 N36'
_cell_volume   744.59889859
_cell_formula_units_Z   3
loop_
 _symmetry_equiv_pos_site_id
 _symmetry_equiv_pos_as_xyz
  1  'x, y, z'
loop_
 _atom_site_type_symbol
 _atom_site_label
 _atom_site_symmetry_multiplicity
 _atom_site_fract_x
 _atom_site_fract_y
 _atom_site_fract_z
 _atom_site_occupancy
  Al  Al0  1  0.11288474  0.09204961  0.31519057  1
  Al  Al1  1  0.21800002  0.20689989  0.06170329  1
  Al  Al2  1  0.78274827  0.08928716  0.80127079  1
  Al  Al3  1  0.44771930  0.09167640  0.31156344  1
  Al  Al4  1  0.55828437  0.20374624  0.06202362  1
  Al  Al5  1  0.10881370  0.09347713  0.80738463  1
  Al  Al6  1  0.21647503  0.20714742  0.55952423  1
  Al  Al7  1  0.78156012  0.09458852  0.32124957  1
  Al  Al8  1  0.88622195  0.20675492  0.06240437  1
  Al  Al9  1  0.44182121  0.09075937  0.81179204  1
  Al  Al10  1  0.56190603  0.20276704  0.56137625  1
  Al  Al11  1  0.12100236  0.42420578  0.31345229  1
  Al  Al12  1  0.21953946  0.54050331  0.06136171  1
  Al  Al13  1  0.77148224  0.42399329  0.80889349  1
  Al  Al14  1  0.88790862  0.54553299  0.62398895  1
  Al  Al15  1  0.44796714  0.42828989  0.31012137  1
  Al  Al16  1  0.55411972  0.54275222  0.05748643  1
  Al  Al17  1  0.11647391  0.42417686  0.81121847  1
  Al  Al18  1  0.21808282  0.54273700  0.55916975  1
  Al  Al19  1  0.77911433  0.42407905  0.34691219  1
  Al  Al20  1  0.87903945  0.54513083  0.13503174  1
  Al  Al21  1  0.44128742  0.43210266  0.81233001  1
  Al  Al22  1  0.55318859  0.53794230  0.57077029  1
  Al  Al23  1  0.11487972  0.76263822  0.31472299  1
  Al  Al24  1  0.22388120  0.87033545  0.05674506  1
  Al  Al25  1  0.77449835  0.75532512  0.87363737  1
  Al  Al26  1  0.44740136  0.76035597  0.31404865  1
  Al  Al27  1  0.54302190  0.87350769  0.05901891  1
  Al  Al28  1  0.10852797  0.76250513  0.80553211  1
  Al  Al29  1  0.21450465  0.87657957  0.56574094  1
  Al  Al30  1  0.78449289  0.76215244  0.38932482  1
  Al  Al31  1  0.89010301  0.87641892  0.06225780  1
  Al  Al32  1  0.55286047  0.87633532  0.57385354  1
  B  B33  1  0.89784660  0.19238095  0.55603390  1
  B  B34  1  0.90005688  0.87839369  0.55397508  1
  B  B35  1  0.44104680  0.76313611  0.80733855  1
  N  N36  1  0.22499568  0.20334162  0.37023200  1
  N  N37  1  0.10950022  0.09267338  0.12242383  1
  N  N38  1  0.88718211  0.20291623  0.87162267  1
  N  N39  1  0.80269852  0.08214846  0.60680490  1
  N  N40  1  0.55671504  0.20570703  0.37120483  1
  N  N41  1  0.44333352  0.09422733  0.11948686  1
  N  N42  1  0.21974711  0.20403283  0.87074881  1
  N  N43  1  0.08672832  0.10655351  0.61474704  1
  N  N44  1  0.89657133  0.19868689  0.39458590  1
  N  N45  1  0.77913195  0.09352842  0.12967842  1
  N  N46  1  0.55906796  0.20228628  0.86828703  1
  N  N47  1  0.44114522  0.09868433  0.62264127  1
  N  N48  1  0.22642756  0.53924131  0.36999029  1
  N  N49  1  0.11244537  0.42730151  0.12074617  1
  N  N50  1  0.88525391  0.53934551  0.81883938  1
  N  N51  1  0.78711460  0.40134258  0.60787095  1
  N  N52  1  0.55233961  0.54196794  0.38030149  1
  N  N53  1  0.44435423  0.42866798  0.11783444  1
  N  N54  1  0.21952567  0.54132056  0.87053104  1
  N  N55  1  0.11775562  0.42520390  0.61778182  1
  N  N56  1  0.88967859  0.54376835  0.33451583  1
  N  N57  1  0.77168420  0.42437279  0.12260668  1
  N  N58  1  0.54196357  0.56330041  0.86188437  1
  N  N59  1  0.44152451  0.42740661  0.62289553  1
  N  N60  1  0.22800818  0.87059394  0.37609546  1
  N  N61  1  0.11046401  0.76278392  0.12323163  1
  N  N62  1  0.89095136  0.87483682  0.87090830  1
  N  N63  1  0.79073047  0.77729313  0.58384633  1
  N  N64  1  0.55296459  0.87317460  0.37792390  1
  N  N65  1  0.44134310  0.76049644  0.12514014  1
  N  N66  1  0.24250267  0.86059443  0.86015392  1
  N  N67  1  0.08773589  0.77351531  0.61323465  1
  N  N68  1  0.90051819  0.87726912  0.38999902  1
  N  N69  1  0.77375701  0.76075147  0.07292944  1
  N  N70  1  0.53519258  0.86158820  0.86254250  1
  N  N71  1  0.44194797  0.76252978  0.64256797  1
