# generated using pymatgen
data_Al11BN12
_symmetry_space_group_name_H-M   'P 1'
_cell_length_a   9.25918469
_cell_length_b   9.25702342
_cell_length_c   9.89673184
_cell_angle_alpha   90.00008359
_cell_angle_beta   90.07523696
_cell_angle_gamma   60.00763948
_symmetry_Int_Tables_number   1
_chemical_formula_structural   Al11BN12
_chemical_formula_sum   'Al33 B3 N36'
_cell_volume   734.68212301
_cell_formula_units_Z   3
loop_
 _symmetry_equiv_pos_site_id
 _symmetry_equiv_pos_as_xyz
  1  'x, y, z'
loop_
 _atom_site_type_symbol
 _atom_site_label
 _atom_site_symmetry_multiplicity
 _atom_site_fract_x
 _atom_site_fract_y
 _atom_site_fract_z
 _atom_site_occupancy
  Al  Al0  1  0.11060251  0.09317668  0.30668297  1
  Al  Al1  1  0.22135363  0.20455447  0.05129569  1
  Al  Al2  1  0.78281353  0.09192667  0.79200971  1
  Al  Al3  1  0.44522937  0.09307050  0.30098476  1
  Al  Al4  1  0.55951879  0.20357391  0.05183147  1
  Al  Al5  1  0.10953372  0.09406830  0.79701363  1
  Al  Al6  1  0.21643298  0.20754405  0.55016688  1
  Al  Al7  1  0.78063491  0.09301599  0.31546932  1
  Al  Al8  1  0.88826109  0.20416692  0.05344913  1
  Al  Al9  1  0.44260860  0.09091637  0.80114414  1
  Al  Al10  1  0.56081846  0.20292400  0.55165850  1
  Al  Al11  1  0.11080951  0.42792832  0.30018603  1
  Al  Al12  1  0.22135381  0.54075798  0.05129577  1
  Al  Al13  1  0.77667845  0.42676765  0.79704140  1
  Al  Al14  1  0.89030991  0.53817797  0.55149679  1
  Al  Al15  1  0.44522937  0.42836673  0.30098483  1
  Al  Al16  1  0.55472184  0.54320892  0.04704420  1
  Al  Al17  1  0.11019665  0.42823491  0.80131628  1
  Al  Al18  1  0.21643276  0.54268975  0.55016676  1
  Al  Al19  1  0.77794814  0.42563883  0.30836776  1
  Al  Al20  1  0.88684592  0.53991004  0.05174462  1
  Al  Al21  1  0.44260854  0.43314208  0.80114404  1
  Al  Al22  1  0.55782230  0.53543335  0.55672092  1
  Al  Al23  1  0.11060260  0.76288728  0.30668299  1
  Al  Al24  1  0.22595837  0.87035373  0.04678685  1
  Al  Al25  1  0.77667825  0.76322029  0.79704145  1
  Al  Al26  1  0.44495142  0.76085782  0.30289493  1
  Al  Al27  1  0.55472205  0.86873556  0.04704421  1
  Al  Al28  1  0.10953352  0.76306470  0.79701358  1
  Al  Al29  1  0.21415848  0.87625426  0.55692460  1
  Al  Al30  1  0.77794841  0.76307941  0.30836778  1
  Al  Al31  1  0.88826103  0.87423885  0.05344912  1
  Al  Al32  1  0.55782260  0.87341073  0.55672098  1
  B  B33  1  0.89504235  0.19849338  0.54554838  1
  B  B34  1  0.89504247  0.87313126  0.54554834  1
  B  B35  1  0.44579976  0.76043340  0.79588132  1
  N  N36  1  0.22242121  0.20566370  0.35927961  1
  N  N37  1  0.11085125  0.09239315  0.11288219  1
  N  N38  1  0.88780460  0.20456376  0.86292501  1
  N  N39  1  0.79989365  0.08338646  0.59682894  1
  N  N40  1  0.55433502  0.20616567  0.36099497  1
  N  N41  1  0.44596183  0.09225970  0.10753655  1
  N  N42  1  0.22011002  0.20503124  0.85944220  1
  N  N43  1  0.08563581  0.10745126  0.60360559  1
  N  N44  1  0.89128754  0.20463684  0.38210193  1
  N  N45  1  0.77990212  0.09338255  0.12108382  1
  N  N46  1  0.55904009  0.20381344  0.85743732  1
  N  N47  1  0.44130942  0.09674299  0.61071110  1
  N  N48  1  0.22242109  0.53858140  0.35927949  1
  N  N49  1  0.11060139  0.42803259  0.10881803  1
  N  N50  1  0.88616877  0.54024871  0.85793308  1
  N  N51  1  0.78982973  0.40157231  0.60410628  1
  N  N52  1  0.55459526  0.54018536  0.36507669  1
  N  N53  1  0.44596182  0.42844529  0.10753669  1
  N  N54  1  0.22011002  0.54152517  0.85944222  1
  N  N55  1  0.11053310  0.42806688  0.61090208  1
  N  N56  1  0.88927246  0.53869690  0.36120669  1
  N  N57  1  0.77685196  0.42675458  0.11359833  1
  N  N58  1  0.54499218  0.56301981  0.85136437  1
  N  N59  1  0.44130931  0.42861448  0.61071100  1
  N  N60  1  0.22506791  0.87079928  0.36614418  1
  N  N61  1  0.11085124  0.76342210  0.11288223  1
  N  N62  1  0.88780435  0.87429838  0.86292495  1
  N  N63  1  0.78982980  0.77526421  0.60410634  1
  N  N64  1  0.55459550  0.87188588  0.36507668  1
  N  N65  1  0.44425317  0.76120682  0.11288556  1
  N  N66  1  0.24483209  0.86091719  0.84912959  1
  N  N67  1  0.08563589  0.77357986  0.60360553  1
  N  N68  1  0.89128761  0.87074222  0.38210188  1
  N  N69  1  0.77685221  0.76306012  0.11359823  1
  N  N70  1  0.54499205  0.85865455  0.85136438  1
  N  N71  1  0.44470926  0.76097871  0.63025158  1
