# generated using pymatgen
data_Al11BN12
_symmetry_space_group_name_H-M   'P 1'
_cell_length_a   9.26926301
_cell_length_b   9.27823026
_cell_length_c   10.10855212
_cell_angle_alpha   89.99886728
_cell_angle_beta   90.65944253
_cell_angle_gamma   59.96432278
_symmetry_Int_Tables_number   1
_chemical_formula_structural   Al11BN12
_chemical_formula_sum   'Al33 B3 N36'
_cell_volume   752.54980011
_cell_formula_units_Z   3
loop_
 _symmetry_equiv_pos_site_id
 _symmetry_equiv_pos_as_xyz
  1  'x, y, z'
loop_
 _atom_site_type_symbol
 _atom_site_label
 _atom_site_symmetry_multiplicity
 _atom_site_fract_x
 _atom_site_fract_y
 _atom_site_fract_z
 _atom_site_occupancy
  Al  Al0  1  0.12021175  0.08692368  0.32132454  1
  Al  Al1  1  0.22384095  0.20137474  0.07777917  1
  Al  Al2  1  0.77822967  0.09417237  0.87954028  1
  Al  Al3  1  0.45366759  0.08914472  0.32703426  1
  Al  Al4  1  0.55204295  0.20726246  0.07090060  1
  Al  Al5  1  0.11511965  0.09049842  0.81875748  1
  Al  Al6  1  0.21452614  0.20551964  0.57051724  1
  Al  Al7  1  0.79544750  0.08556278  0.40545983  1
  Al  Al8  1  0.88201086  0.20793327  0.14005377  1
  Al  Al9  1  0.43760830  0.09258189  0.82216561  1
  Al  Al10  1  0.55568816  0.20544045  0.58305369  1
  Al  Al11  1  0.11429272  0.42614193  0.34533652  1
  Al  Al12  1  0.22384087  0.54135379  0.07777896  1
  Al  Al13  1  0.77434452  0.43051093  0.88111035  1
  Al  Al14  1  0.89040222  0.53808467  0.64248380  1
  Al  Al15  1  0.45366800  0.42376188  0.32703420  1
  Al  Al16  1  0.54808078  0.54656916  0.06870368  1
  Al  Al17  1  0.10823762  0.42917051  0.86225862  1
  Al  Al18  1  0.21452473  0.54652364  0.57051751  1
  Al  Al19  1  0.78858508  0.41650125  0.40202521  1
  Al  Al20  1  0.88114599  0.54271184  0.14146957  1
  Al  Al21  1  0.43760940  0.43638347  0.82216578  1
  Al  Al22  1  0.55295554  0.53855323  0.58584034  1
  Al  Al23  1  0.12021162  0.75944102  0.32132435  1
  Al  Al24  1  0.22685355  0.86985864  0.06665105  1
  Al  Al25  1  0.77434306  0.76172087  0.88110936  1
  Al  Al26  1  0.45011833  0.75822808  0.32818746  1
  Al  Al27  1  0.54808050  0.87191879  0.06870336  1
  Al  Al28  1  0.11511855  0.76095989  0.81875745  1
  Al  Al29  1  0.21046669  0.87805154  0.57803503  1
  Al  Al30  1  0.78858412  0.76148861  0.40202549  1
  Al  Al31  1  0.88201091  0.87662454  0.14005348  1
  Al  Al32  1  0.55295590  0.87506141  0.58584069  1
  B  B33  1  0.88870653  0.20084815  0.65330094  1
  B  B34  1  0.88870581  0.87702404  0.65330055  1
  B  B35  1  0.44104980  0.76275995  0.81960056  1
  N  N36  1  0.22767328  0.19872179  0.38102490  1
  N  N37  1  0.11786516  0.08718769  0.13087383  1
  N  N38  1  0.87672887  0.21149304  0.81283847  1
  N  N39  1  0.80459462  0.08098986  0.59876337  1
  N  N40  1  0.55852278  0.20402116  0.39211749  1
  N  N41  1  0.45083611  0.08998338  0.13624636  1
  N  N42  1  0.21889408  0.20259465  0.88774618  1
  N  N43  1  0.09132056  0.10395954  0.63064175  1
  N  N44  1  0.88519282  0.20585427  0.32889085  1
  N  N45  1  0.78688442  0.08984703  0.06982492  1
  N  N46  1  0.54205235  0.21225618  0.88050829  1
  N  N47  1  0.43861206  0.09704155  0.63688291  1
  N  N48  1  0.22767370  0.54017159  0.38102517  1
  N  N49  1  0.11281904  0.42687914  0.11980807  1
  N  N50  1  0.88310791  0.54173039  0.82879740  1
  N  N51  1  0.79441559  0.39652519  0.59356229  1
  N  N52  1  0.55394502  0.54148000  0.39432079  1
  N  N53  1  0.45083647  0.42575430  0.13624602  1
  N  N54  1  0.21889455  0.54507990  0.88774658  1
  N  N55  1  0.11070889  0.42793378  0.60487046  1
  N  N56  1  0.88051298  0.54302836  0.33409684  1
  N  N57  1  0.78256888  0.42372469  0.07197012  1
  N  N58  1  0.53385945  0.56963560  0.87499322  1
  N  N59  1  0.43861218  0.43092310  0.63688271  1
  N  N60  1  0.22607915  0.87024368  0.39002823  1
  N  N61  1  0.11786517  0.76152387  0.13087342  1
  N  N62  1  0.87672873  0.87834710  0.81283785  1
  N  N63  1  0.79441448  0.77563717  0.59356132  1
  N  N64  1  0.55394501  0.87113969  0.39432145  1
  N  N65  1  0.44702409  0.75977511  0.13979452  1
  N  N66  1  0.24141450  0.86257710  0.87480055  1
  N  N67  1  0.09132060  0.77129500  0.63064183  1
  N  N68  1  0.88519295  0.87552113  0.32889040  1
  N  N69  1  0.78256829  0.76028547  0.07196924  1
  N  N70  1  0.53385960  0.86307131  0.87499408  1
  N  N71  1  0.44126415  0.76265584  0.65610974  1
