# generated using pymatgen
data_Al11BN12
_symmetry_space_group_name_H-M   'P 1'
_cell_length_a   9.26817765
_cell_length_b   9.27596952
_cell_length_c   10.10852804
_cell_angle_alpha   89.99803770
_cell_angle_beta   90.65753842
_cell_angle_gamma   59.96558601
_symmetry_Int_Tables_number   1
_chemical_formula_structural   Al11BN12
_chemical_formula_sum   'Al33 B3 N36'
_cell_volume   752.28643620
_cell_formula_units_Z   3
loop_
 _symmetry_equiv_pos_site_id
 _symmetry_equiv_pos_as_xyz
  1  'x, y, z'
loop_
 _atom_site_type_symbol
 _atom_site_label
 _atom_site_symmetry_multiplicity
 _atom_site_fract_x
 _atom_site_fract_y
 _atom_site_fract_z
 _atom_site_occupancy
  Al  Al0  1  0.12022941  0.08707162  0.32147540  1
  Al  Al1  1  0.22335091  0.20226103  0.07748250  1
  Al  Al2  1  0.77822593  0.09417478  0.87954824  1
  Al  Al3  1  0.45353219  0.08924229  0.32716130  1
  Al  Al4  1  0.55201547  0.20727468  0.07096236  1
  Al  Al5  1  0.11512868  0.09054100  0.81887381  1
  Al  Al6  1  0.21427177  0.20614164  0.57059200  1
  Al  Al7  1  0.79545028  0.08556133  0.40546531  1
  Al  Al8  1  0.88207298  0.20786704  0.14010871  1
  Al  Al9  1  0.43765660  0.09248549  0.82226148  1
  Al  Al10  1  0.55570453  0.20543054  0.58310037  1
  Al  Al11  1  0.11542972  0.42557555  0.33795457  1
  Al  Al12  1  0.22335100  0.54095608  0.07748224  1
  Al  Al13  1  0.77443683  0.43052386  0.88125350  1
  Al  Al14  1  0.88926761  0.53865176  0.64239481  1
  Al  Al15  1  0.45353296  0.42380095  0.32716122  1
  Al  Al16  1  0.54796518  0.54656472  0.06874661  1
  Al  Al17  1  0.10991857  0.42833288  0.85227752  1
  Al  Al18  1  0.21426985  0.54615473  0.57059226  1
  Al  Al19  1  0.78867557  0.41650867  0.40199135  1
  Al  Al20  1  0.88066400  0.54295166  0.14139272  1
  Al  Al21  1  0.43765799  0.43643275  0.82226174  1
  Al  Al22  1  0.55288220  0.53856586  0.58580283  1
  Al  Al23  1  0.12022961  0.75927889  0.32147494  1
  Al  Al24  1  0.22685489  0.86985758  0.06674596  1
  Al  Al25  1  0.77443443  0.76161856  0.88125191  1
  Al  Al26  1  0.45013961  0.75821825  0.32818075  1
  Al  Al27  1  0.54796475  0.87203647  0.06874615  1
  Al  Al28  1  0.11512663  0.76091245  0.81887362  1
  Al  Al29  1  0.21048175  0.87804283  0.57807138  1
  Al  Al30  1  0.78867443  0.76139228  0.40199168  1
  Al  Al31  1  0.88207332  0.87662552  0.14010820  1
  Al  Al32  1  0.55288338  0.87511934  0.58580336  1
  B  B33  1  0.88877720  0.20076929  0.65332914  1
  B  B34  1  0.88877631  0.87703732  0.65332843  1
  B  B35  1  0.44109098  0.76273811  0.81964749  1
  N  N36  1  0.22715476  0.19965067  0.38163090  1
  N  N37  1  0.11796244  0.08732193  0.13090864  1
  N  N38  1  0.87673108  0.21150305  0.81284769  1
  N  N39  1  0.80463055  0.08097258  0.59877843  1
  N  N40  1  0.55853941  0.20400961  0.39215665  1
  N  N41  1  0.45062323  0.09012340  0.13628757  1
  N  N42  1  0.21857484  0.20326809  0.88800380  1
  N  N43  1  0.09135365  0.10400539  0.63066885  1
  N  N44  1  0.88520775  0.20582512  0.32889743  1
  N  N45  1  0.78689327  0.08984524  0.06981972  1
  N  N46  1  0.54205755  0.21225033  0.88053853  1
  N  N47  1  0.43862090  0.09701601  0.63692280  1
  N  N48  1  0.22715543  0.53975671  0.38163096  1
  N  N49  1  0.11375023  0.42641562  0.12540109  1
  N  N50  1  0.88248644  0.54203937  0.82900182  1
  N  N51  1  0.79446576  0.39649795  0.59345478  1
  N  N52  1  0.55389093  0.54146802  0.39432787  1
  N  N53  1  0.45062405  0.42582885  0.13628689  1
  N  N54  1  0.21857551  0.54472241  0.88800433  1
  N  N55  1  0.11216479  0.42720750  0.61247416  1
  N  N56  1  0.88061454  0.54297608  0.33463889  1
  N  N57  1  0.78256092  0.42369244  0.07204443  1
  N  N58  1  0.53380683  0.56963563  0.87507109  1
  N  N59  1  0.43862130  0.43094269  0.63692239  1
  N  N60  1  0.22609414  0.87023419  0.39003886  1
  N  N61  1  0.11796273  0.76129676  0.13090776  1
  N  N62  1  0.87673062  0.87833212  0.81284671  1
  N  N63  1  0.79446370  0.77561868  0.59345275  1
  N  N64  1  0.55389095  0.87119956  0.39432902  1
  N  N65  1  0.44704447  0.75976604  0.13983047  1
  N  N66  1  0.24140737  0.86257929  0.87485394  1
  N  N67  1  0.09135405  0.77121897  0.63066892  1
  N  N68  1  0.88520824  0.87553161  0.32889656  1
  N  N69  1  0.78255971  0.76033122  0.07204292  1
  N  N70  1  0.53380687  0.86311887  0.87507270  1
  N  N71  1  0.44130838  0.76263509  0.65614622  1
