# generated using pymatgen
data_Al11BN12
_symmetry_space_group_name_H-M   'P 1'
_cell_length_a   9.33757689
_cell_length_b   9.35249842
_cell_length_c   9.95205373
_cell_angle_alpha   90.03655282
_cell_angle_beta   90.49958632
_cell_angle_gamma   59.96034080
_symmetry_Int_Tables_number   1
_chemical_formula_structural   Al11BN12
_chemical_formula_sum   'Al33 B3 N36'
_cell_volume   752.33444585
_cell_formula_units_Z   3
loop_
 _symmetry_equiv_pos_site_id
 _symmetry_equiv_pos_as_xyz
  1  'x, y, z'
loop_
 _atom_site_type_symbol
 _atom_site_label
 _atom_site_symmetry_multiplicity
 _atom_site_fract_x
 _atom_site_fract_y
 _atom_site_fract_z
 _atom_site_occupancy
  Al  Al0  1  0.10517644  0.09727924  0.40131442  1
  Al  Al1  1  0.22435378  0.20254243  0.08133929  1
  Al  Al2  1  0.78049848  0.09291088  0.87721703  1
  Al  Al3  1  0.44622805  0.09237009  0.32710261  1
  Al  Al4  1  0.55392003  0.20689000  0.07215922  1
  Al  Al5  1  0.10794672  0.09457679  0.86768170  1
  Al  Al6  1  0.21704588  0.20695259  0.60979304  1
  Al  Al7  1  0.78944577  0.08913852  0.39782820  1
  Al  Al8  1  0.89077381  0.20306348  0.13761671  1
  Al  Al9  1  0.44633802  0.08842170  0.82218018  1
  Al  Al10  1  0.55998792  0.20331009  0.58001096  1
  Al  Al11  1  0.10951647  0.42648877  0.39194195  1
  Al  Al12  1  0.22551806  0.53924816  0.07081103  1
  Al  Al13  1  0.77482443  0.43011137  0.88014153  1
  Al  Al14  1  0.88674029  0.54033504  0.64102614  1
  Al  Al15  1  0.44560572  0.42849576  0.32664079  1
  Al  Al16  1  0.54863054  0.54624010  0.07057724  1
  Al  Al17  1  0.10305601  0.43104029  0.88166132  1
  Al  Al18  1  0.22058572  0.54106807  0.58789824  1
  Al  Al19  1  0.78541050  0.41906654  0.39462882  1
  Al  Al20  1  0.88575782  0.54029437  0.14008965  1
  Al  Al21  1  0.44385147  0.43278336  0.82119833  1
  Al  Al22  1  0.55648825  0.53645602  0.58214562  1
  Al  Al23  1  0.10368349  0.76774211  0.39856346  1
  Al  Al24  1  0.23091303  0.86771688  0.06246791  1
  Al  Al25  1  0.77528169  0.76101615  0.88055157  1
  Al  Al26  1  0.44239364  0.76230137  0.32903173  1
  Al  Al27  1  0.54920589  0.87106329  0.07054811  1
  Al  Al28  1  0.10866540  0.76306981  0.86612640  1
  Al  Al29  1  0.21838536  0.87380144  0.60488011  1
  Al  Al30  1  0.78577630  0.76190757  0.39454087  1
  Al  Al31  1  0.89059981  0.87314068  0.13737469  1
  Al  Al32  1  0.55635691  0.87385276  0.58156534  1
  B  B33  1  0.89152707  0.19980232  0.64962418  1
  B  B34  1  0.89254550  0.87307777  0.64958098  1
  B  B35  1  0.44613459  0.76006598  0.81576702  1
  N  N36  1  0.22518197  0.20071343  0.37586001  1
  N  N37  1  0.10567356  0.09481067  0.06891242  1
  N  N38  1  0.88224763  0.20866986  0.80983563  1
  N  N39  1  0.80304886  0.08227515  0.59527195  1
  N  N40  1  0.55635951  0.20548788  0.38550253  1
  N  N41  1  0.44784452  0.09157541  0.13190926  1
  N  N42  1  0.22179854  0.20695719  0.85548080  1
  N  N43  1  0.08184095  0.10888947  0.60332058  1
  N  N44  1  0.89100446  0.20276965  0.32786182  1
  N  N45  1  0.78593858  0.09054037  0.07288481  1
  N  N46  1  0.54768113  0.20975847  0.87884828  1
  N  N47  1  0.44757955  0.09316476  0.63412148  1
  N  N48  1  0.22567607  0.54050203  0.38488437  1
  N  N49  1  0.10597398  0.42975797  0.08222787  1
  N  N50  1  0.88298623  0.54172262  0.82784793  1
  N  N51  1  0.79399784  0.39821991  0.59041279  1
  N  N52  1  0.55319204  0.54188602  0.38812585  1
  N  N53  1  0.44604438  0.42822610  0.13308837  1
  N  N54  1  0.22449310  0.53589856  0.86921588  1
  N  N55  1  0.10432624  0.43110787  0.59029131  1
  N  N56  1  0.88605207  0.54030442  0.33335073  1
  N  N57  1  0.78128799  0.42389107  0.07555602  1
  N  N58  1  0.53669979  0.56778950  0.87438273  1
  N  N59  1  0.44597954  0.42662533  0.63403046  1
  N  N60  1  0.22933540  0.86913661  0.40030553  1
  N  N61  1  0.10541979  0.76719777  0.07128103  1
  N  N62  1  0.88252058  0.87492615  0.80977292  1
  N  N63  1  0.79436075  0.77442077  0.59019442  1
  N  N64  1  0.55383293  0.87129705  0.38784071  1
  N  N65  1  0.44241398  0.76219550  0.13823971  1
  N  N66  1  0.24837321  0.85889313  0.85720245  1
  N  N67  1  0.08267246  0.77462462  0.60367076  1
  N  N68  1  0.88983497  0.87384732  0.32761980  1
  N  N69  1  0.78176330  0.76095613  0.07567477  1
  N  N70  1  0.53701881  0.86151120  0.87482752  1
  N  N71  1  0.45225350  0.75730867  0.65396997  1
