# generated using pymatgen
data_Al11BN12
_symmetry_space_group_name_H-M   'P 1'
_cell_length_a   9.32713309
_cell_length_b   9.36848024
_cell_length_c   9.94514141
_cell_angle_alpha   90.16312544
_cell_angle_beta   90.21038664
_cell_angle_gamma   60.03506582
_symmetry_Int_Tables_number   1
_chemical_formula_structural   Al11BN12
_chemical_formula_sum   'Al33 B3 N36'
_cell_volume   752.85100865
_cell_formula_units_Z   3
loop_
 _symmetry_equiv_pos_site_id
 _symmetry_equiv_pos_as_xyz
  1  'x, y, z'
loop_
 _atom_site_type_symbol
 _atom_site_label
 _atom_site_symmetry_multiplicity
 _atom_site_fract_x
 _atom_site_fract_y
 _atom_site_fract_z
 _atom_site_occupancy
  Al  Al0  1  0.10435958  0.09883154  0.39840084  1
  Al  Al1  1  0.21572810  0.20581150  0.13767072  1
  Al  Al2  1  0.78284316  0.09083436  0.87423118  1
  Al  Al3  1  0.45105222  0.08508277  0.32723513  1
  Al  Al4  1  0.56269605  0.20570719  0.13241138  1
  Al  Al5  1  0.10984090  0.09756798  0.87423424  1
  Al  Al6  1  0.21089198  0.21148556  0.63765650  1
  Al  Al7  1  0.78381263  0.09783305  0.39895077  1
  Al  Al8  1  0.88888814  0.20498585  0.13419149  1
  Al  Al9  1  0.44613734  0.08600400  0.82173448  1
  Al  Al10  1  0.56808561  0.20647031  0.63556789  1
  Al  Al11  1  0.11174100  0.42589221  0.38674738  1
  Al  Al12  1  0.22036205  0.54219027  0.13792875  1
  Al  Al13  1  0.77862443  0.42812005  0.87593139  1
  Al  Al14  1  0.89329692  0.53346348  0.64027505  1
  Al  Al15  1  0.44486099  0.42826783  0.37027070  1
  Al  Al16  1  0.54893320  0.54787678  0.06688768  1
  Al  Al17  1  0.11101020  0.42622709  0.89452116  1
  Al  Al18  1  0.21379666  0.53849430  0.64024558  1
  Al  Al19  1  0.78652571  0.42035219  0.39434828  1
  Al  Al20  1  0.88382908  0.54107697  0.13797102  1
  Al  Al21  1  0.44327694  0.43336370  0.85246361  1
  Al  Al22  1  0.55583863  0.54155768  0.58508926  1
  Al  Al23  1  0.10291329  0.76257125  0.39770933  1
  Al  Al24  1  0.23036392  0.86868977  0.06434864  1
  Al  Al25  1  0.77734443  0.75589084  0.88093235  1
  Al  Al26  1  0.44240965  0.76131019  0.32767460  1
  Al  Al27  1  0.54707275  0.87304396  0.06685980  1
  Al  Al28  1  0.11268436  0.75610697  0.87871848  1
  Al  Al29  1  0.21286662  0.87675434  0.60089034  1
  Al  Al30  1  0.78739597  0.76065232  0.39318569  1
  Al  Al31  1  0.88823719  0.87432922  0.13738554  1
  Al  Al32  1  0.55439296  0.87471760  0.58212758  1
  B  B33  1  0.88582609  0.20639678  0.64359998  1
  B  B34  1  0.90853167  0.82964537  0.65599643  1
  B  B35  1  0.44454131  0.76124220  0.81331087  1
  N  N36  1  0.21735483  0.20371041  0.33330999  1
  N  N37  1  0.10771500  0.09764515  0.06965244  1
  N  N38  1  0.88689875  0.20652216  0.80839819  1
  N  N39  1  0.78881215  0.12177706  0.58575591  1
  N  N40  1  0.56342962  0.20407801  0.33402166  1
  N  N41  1  0.44792565  0.08808238  0.12603493  1
  N  N42  1  0.21677444  0.21148650  0.83023109  1
  N  N43  1  0.08116434  0.11295359  0.59398128  1
  N  N44  1  0.89089583  0.20564111  0.32384670  1
  N  N45  1  0.78327215  0.09063162  0.06826087  1
  N  N46  1  0.55972339  0.20450802  0.83245730  1
  N  N47  1  0.44517572  0.09448746  0.62390593  1
  N  N48  1  0.21746746  0.54399988  0.33221950  1
  N  N49  1  0.10938453  0.42836491  0.08425645  1
  N  N50  1  0.89199566  0.53688853  0.82821810  1
  N  N51  1  0.79301357  0.40828737  0.59091064  1
  N  N52  1  0.55550085  0.54466081  0.38748920  1
  N  N53  1  0.44384783  0.42894964  0.09435237  1
  N  N54  1  0.21623683  0.53706679  0.82995876  1
  N  N55  1  0.11005129  0.42717863  0.57582382  1
  N  N56  1  0.88645104  0.54112437  0.33105845  1
  N  N57  1  0.78128037  0.42468048  0.07181844  1
  N  N58  1  0.53951876  0.57026901  0.86774875  1
  N  N59  1  0.43753689  0.43331354  0.60432707  1
  N  N60  1  0.22723156  0.86780969  0.39829476  1
  N  N61  1  0.10744730  0.76106490  0.07275005  1
  N  N62  1  0.88934113  0.86540090  0.80802999  1
  N  N63  1  0.79820678  0.76702979  0.59199807  1
  N  N64  1  0.55573510  0.86843482  0.38939175  1
  N  N65  1  0.44238018  0.76261546  0.13704828  1
  N  N66  1  0.24678508  0.85892656  0.86018821  1
  N  N67  1  0.08062013  0.76727156  0.59564012  1
  N  N68  1  0.88728354  0.87742531  0.32868386  1
  N  N69  1  0.78081451  0.76085410  0.07465819  1
  N  N70  1  0.53847466  0.86039833  0.87120221  1
  N  N71  1  0.44568995  0.76280002  0.65262240  1
