# generated using pymatgen
data_Al11BN12
_symmetry_space_group_name_H-M   'P 1'
_cell_length_a   9.32106540
_cell_length_b   9.33074709
_cell_length_c   10.00618412
_cell_angle_alpha   90.04217935
_cell_angle_beta   90.59530426
_cell_angle_gamma   59.95626576
_symmetry_Int_Tables_number   1
_chemical_formula_structural   Al11BN12
_chemical_formula_sum   'Al33 B3 N36'
_cell_volume   753.28672332
_cell_formula_units_Z   3
loop_
 _symmetry_equiv_pos_site_id
 _symmetry_equiv_pos_as_xyz
  1  'x, y, z'
loop_
 _atom_site_type_symbol
 _atom_site_label
 _atom_site_symmetry_multiplicity
 _atom_site_fract_x
 _atom_site_fract_y
 _atom_site_fract_z
 _atom_site_occupancy
  Al  Al0  1  0.10250175  0.09629588  0.39778152  1
  Al  Al1  1  0.22535365  0.20155493  0.07266186  1
  Al  Al2  1  0.77991880  0.09427817  0.87869773  1
  Al  Al3  1  0.44687745  0.09173495  0.32687450  1
  Al  Al4  1  0.55244855  0.20726801  0.07168472  1
  Al  Al5  1  0.10909725  0.09340768  0.87039074  1
  Al  Al6  1  0.22058497  0.20553779  0.58793164  1
  Al  Al7  1  0.78989300  0.08709180  0.40055966  1
  Al  Al8  1  0.89044217  0.20294778  0.13784175  1
  Al  Al9  1  0.44344453  0.09019841  0.82154234  1
  Al  Al10  1  0.55912545  0.20419133  0.58170377  1
  Al  Al11  1  0.10749890  0.42879568  0.38921545  1
  Al  Al12  1  0.22407496  0.54271007  0.07376197  1
  Al  Al13  1  0.77583485  0.42965832  0.88044989  1
  Al  Al14  1  0.88953606  0.53892386  0.64216551  1
  Al  Al15  1  0.44843937  0.42607987  0.32600084  1
  Al  Al16  1  0.54893566  0.54589478  0.07000250  1
  Al  Al17  1  0.10337030  0.43322728  0.88525395  1
  Al  Al18  1  0.21863951  0.54723823  0.57754147  1
  Al  Al19  1  0.78469088  0.41932811  0.39596335  1
  Al  Al20  1  0.88551532  0.54015942  0.14047156  1
  Al  Al21  1  0.44114762  0.43453623  0.82231899  1
  Al  Al22  1  0.55590407  0.53677963  0.58369836  1
  Al  Al23  1  0.11658481  0.76151929  0.33299982  1
  Al  Al24  1  0.22882746  0.86424860  0.06344172  1
  Al  Al25  1  0.77446866  0.76116757  0.88161226  1
  Al  Al26  1  0.44469937  0.76157926  0.32828547  1
  Al  Al27  1  0.54760668  0.87167964  0.06985821  1
  Al  Al28  1  0.11403205  0.76023144  0.82110831  1
  Al  Al29  1  0.21703183  0.87230506  0.59309555  1
  Al  Al30  1  0.78617043  0.76219788  0.39760542  1
  Al  Al31  1  0.88389445  0.87581687  0.13842359  1
  Al  Al32  1  0.55623022  0.87366980  0.58368226  1
  B  B33  1  0.89392444  0.19937392  0.64984215  1
  B  B34  1  0.88884767  0.87649255  0.65197487  1
  B  B35  1  0.44482664  0.76037142  0.81739573  1
  N  N36  1  0.22653352  0.19935360  0.38434508  1
  N  N37  1  0.10536729  0.09288293  0.07196792  1
  N  N38  1  0.88420649  0.20783158  0.80943301  1
  N  N39  1  0.80403867  0.07991168  0.59639803  1
  N  N40  1  0.55582594  0.20530579  0.38810904  1
  N  N41  1  0.44700962  0.09172143  0.13405244  1
  N  N42  1  0.22421383  0.20655684  0.87051662  1
  N  N43  1  0.08319955  0.10819733  0.60089315  1
  N  N44  1  0.88840033  0.20336800  0.32764247  1
  N  N45  1  0.78531813  0.09077966  0.07229179  1
  N  N46  1  0.54622281  0.21112024  0.87910779  1
  N  N47  1  0.44592619  0.09412846  0.63527459  1
  N  N48  1  0.22623501  0.54074268  0.38344885  1
  N  N49  1  0.10625482  0.43019238  0.08619643  1
  N  N50  1  0.88435074  0.54139148  0.82804876  1
  N  N51  1  0.79455417  0.39790420  0.59076924  1
  N  N52  1  0.55251874  0.54202193  0.38997714  1
  N  N53  1  0.44762525  0.42710260  0.13394187  1
  N  N54  1  0.22197049  0.54341740  0.87956306  1
  N  N55  1  0.10588046  0.43239934  0.58855462  1
  N  N56  1  0.88425994  0.54108376  0.33319995  1
  N  N57  1  0.78175578  0.42346142  0.07488892  1
  N  N58  1  0.53738729  0.56739566  0.87419774  1
  N  N59  1  0.44269334  0.42880421  0.63528800  1
  N  N60  1  0.22759705  0.86698857  0.39745236  1
  N  N61  1  0.11563961  0.76194365  0.12502011  1
  N  N62  1  0.87677261  0.87811291  0.81343470  1
  N  N63  1  0.79530392  0.77458149  0.59166145  1
  N  N64  1  0.55314271  0.87146430  0.39058061  1
  N  N65  1  0.44367125  0.76142048  0.13861904  1
  N  N66  1  0.24742181  0.85679372  0.86527444  1
  N  N67  1  0.09015617  0.77118957  0.63031829  1
  N  N68  1  0.88454105  0.87575951  0.32890276  1
  N  N69  1  0.78101214  0.76063225  0.07481522  1
  N  N70  1  0.53583302  0.86197804  0.87462505  1
  N  N71  1  0.44861841  0.75907004  0.65476600  1
