# generated using pymatgen
data_Al11BN12
_symmetry_space_group_name_H-M   'P 1'
_cell_length_a   9.29980958
_cell_length_b   9.32571316
_cell_length_c   10.15160005
_cell_angle_alpha   90.03073596
_cell_angle_beta   90.39049699
_cell_angle_gamma   59.63790795
_symmetry_Int_Tables_number   1
_chemical_formula_structural   Al11BN12
_chemical_formula_sum   'Al33 B3 N36'
_cell_volume   759.64816506
_cell_formula_units_Z   3
loop_
 _symmetry_equiv_pos_site_id
 _symmetry_equiv_pos_as_xyz
  1  'x, y, z'
loop_
 _atom_site_type_symbol
 _atom_site_label
 _atom_site_symmetry_multiplicity
 _atom_site_fract_x
 _atom_site_fract_y
 _atom_site_fract_z
 _atom_site_occupancy
  Al  Al0  1  0.12088881  0.08872272  0.32095465  1
  Al  Al1  1  0.22098731  0.20726464  0.07175241  1
  Al  Al2  1  0.76911188  0.09808760  0.80387393  1
  Al  Al3  1  0.44859990  0.08987790  0.32194319  1
  Al  Al4  1  0.55668757  0.20479861  0.06910340  1
  Al  Al5  1  0.12143944  0.08840765  0.82201004  1
  Al  Al6  1  0.21772191  0.20968493  0.56868964  1
  Al  Al7  1  0.77533671  0.09458211  0.33192710  1
  Al  Al8  1  0.88417463  0.21242109  0.13983999  1
  Al  Al9  1  0.44240896  0.09064879  0.82069692  1
  Al  Al10  1  0.56105087  0.19566429  0.57082166  1
  Al  Al11  1  0.11800907  0.42573265  0.32193724  1
  Al  Al12  1  0.22125074  0.53935384  0.07129054  1
  Al  Al13  1  0.77544925  0.43502295  0.88473576  1
  Al  Al14  1  0.88720528  0.54389755  0.64369870  1
  Al  Al15  1  0.44925615  0.42770266  0.32356335  1
  Al  Al16  1  0.54459331  0.54732914  0.06745683  1
  Al  Al17  1  0.11898317  0.42450345  0.82191361  1
  Al  Al18  1  0.21755490  0.54382558  0.57070875  1
  Al  Al19  1  0.79111732  0.41693913  0.40164737  1
  Al  Al20  1  0.87760747  0.54460588  0.14239467  1
  Al  Al21  1  0.44237440  0.43285578  0.82064692  1
  Al  Al22  1  0.55185188  0.53831626  0.58543197  1
  Al  Al23  1  0.12003204  0.75830675  0.32235424  1
  Al  Al24  1  0.22614092  0.86963850  0.06649498  1
  Al  Al25  1  0.77696263  0.75830587  0.88430108  1
  Al  Al26  1  0.45088610  0.75768824  0.32790476  1
  Al  Al27  1  0.54470622  0.87358024  0.06726876  1
  Al  Al28  1  0.11681772  0.75792890  0.81767901  1
  Al  Al29  1  0.20443692  0.88144508  0.57655954  1
  Al  Al30  1  0.78864967  0.76008699  0.40267331  1
  Al  Al31  1  0.88475771  0.86879550  0.13834705  1
  Al  Al32  1  0.55035805  0.87453916  0.58418526  1
  B  B33  1  0.90764291  0.23132957  0.66066884  1
  B  B34  1  0.88162423  0.87083514  0.65142527  1
  B  B35  1  0.44117631  0.76230009  0.81869135  1
  N  N36  1  0.22399414  0.20482688  0.38182876  1
  N  N37  1  0.11870167  0.08923164  0.12758632  1
  N  N38  1  0.88178258  0.21958474  0.81097538  1
  N  N39  1  0.78320360  0.06147362  0.61974846  1
  N  N40  1  0.55298433  0.20613575  0.38301609  1
  N  N41  1  0.44625235  0.09248735  0.13173597  1
  N  N42  1  0.22115991  0.20615710  0.88450922  1
  N  N43  1  0.09264526  0.11158302  0.63121864  1
  N  N44  1  0.88952923  0.20973518  0.33009027  1
  N  N45  1  0.77332661  0.09678053  0.12651562  1
  N  N46  1  0.55407221  0.20639147  0.88021844  1
  N  N47  1  0.43767570  0.09630987  0.63463463  1
  N  N48  1  0.22519739  0.53830805  0.38317315  1
  N  N49  1  0.11407433  0.42724114  0.13261122  1
  N  N50  1  0.88543160  0.54067250  0.82913991  1
  N  N51  1  0.80023363  0.40080624  0.59323020  1
  N  N52  1  0.55499563  0.53976265  0.39474004  1
  N  N53  1  0.44655115  0.42802119  0.13264660  1
  N  N54  1  0.22177483  0.53939361  0.88371780  1
  N  N55  1  0.11881838  0.42573656  0.63144193  1
  N  N56  1  0.88165714  0.54233420  0.33537760  1
  N  N57  1  0.78038808  0.42643819  0.07231368  1
  N  N58  1  0.53470406  0.56917674  0.87358162  1
  N  N59  1  0.44554563  0.42312902  0.63427414  1
  N  N60  1  0.22528047  0.87143440  0.38886687  1
  N  N61  1  0.11931541  0.75922232  0.12898123  1
  N  N62  1  0.88296388  0.86755755  0.81947123  1
  N  N63  1  0.79281042  0.76811316  0.59275704  1
  N  N64  1  0.55233320  0.87278885  0.39265463  1
  N  N65  1  0.44606498  0.75996309  0.13957454  1
  N  N66  1  0.24209509  0.86132606  0.87415480  1
  N  N67  1  0.09141867  0.76982686  0.62920491  1
  N  N68  1  0.88905312  0.86529703  0.32891624  1
  N  N69  1  0.77959416  0.75959043  0.07275760  1
  N  N70  1  0.53447764  0.86189985  0.87385593  1
  N  N71  1  0.43863815  0.76291247  0.65495024  1
