# generated using pymatgen
data_Al11BN12
_symmetry_space_group_name_H-M   'P 1'
_cell_length_a   9.29487361
_cell_length_b   9.30814217
_cell_length_c   10.07234221
_cell_angle_alpha   90.03576219
_cell_angle_beta   90.64001787
_cell_angle_gamma   59.96663265
_symmetry_Int_Tables_number   1
_chemical_formula_structural   Al11BN12
_chemical_formula_sum   'Al33 B3 N36'
_cell_volume   754.37491103
_cell_formula_units_Z   3
loop_
 _symmetry_equiv_pos_site_id
 _symmetry_equiv_pos_as_xyz
  1  'x, y, z'
loop_
 _atom_site_type_symbol
 _atom_site_label
 _atom_site_symmetry_multiplicity
 _atom_site_fract_x
 _atom_site_fract_y
 _atom_site_fract_z
 _atom_site_occupancy
  Al  Al0  1  0.10697182  0.09367071  0.37910248  1
  Al  Al1  1  0.22547139  0.19996289  0.07429303  1
  Al  Al2  1  0.77915035  0.09461260  0.87913780  1
  Al  Al3  1  0.45009867  0.09031693  0.32651090  1
  Al  Al4  1  0.55211952  0.20728743  0.07074165  1
  Al  Al5  1  0.11148679  0.09177834  0.85768910  1
  Al  Al6  1  0.21911419  0.20499565  0.58194650  1
  Al  Al7  1  0.79178735  0.08531347  0.40319465  1
  Al  Al8  1  0.88870444  0.20383374  0.13779254  1
  Al  Al9  1  0.44112709  0.09183824  0.82138689  1
  Al  Al10  1  0.55750763  0.20531071  0.58254400  1
  Al  Al11  1  0.10733641  0.42969400  0.38607398  1
  Al  Al12  1  0.22522113  0.54262023  0.07709762  1
  Al  Al13  1  0.77607453  0.42981051  0.88049797  1
  Al  Al14  1  0.89178959  0.53786271  0.64299578  1
  Al  Al15  1  0.45114740  0.42444479  0.32628551  1
  Al  Al16  1  0.54945376  0.54555292  0.06891481  1
  Al  Al17  1  0.10292767  0.43433029  0.89113701  1
  Al  Al18  1  0.21738817  0.54956940  0.57194766  1
  Al  Al19  1  0.78527598  0.41901661  0.39889796  1
  Al  Al20  1  0.88467138  0.54037592  0.14138412  1
  Al  Al21  1  0.43805415  0.43638680  0.82245806  1
  Al  Al22  1  0.55477718  0.53761860  0.58529872  1
  Al  Al23  1  0.11907533  0.75960682  0.32158922  1
  Al  Al24  1  0.22852625  0.86530756  0.06493624  1
  Al  Al25  1  0.77443747  0.76124177  0.88081819  1
  Al  Al26  1  0.44779130  0.75970220  0.32779042  1
  Al  Al27  1  0.54787264  0.87146363  0.06863151  1
  Al  Al28  1  0.11486208  0.76004103  0.81865581  1
  Al  Al29  1  0.21430484  0.87337137  0.58555191  1
  Al  Al30  1  0.78716152  0.76202113  0.40001177  1
  Al  Al31  1  0.88141251  0.87675523  0.13905652  1
  Al  Al32  1  0.55464871  0.87410807  0.58503344  1
  B  B33  1  0.89368364  0.19886431  0.65081505  1
  B  B34  1  0.88805274  0.87733264  0.65277604  1
  B  B35  1  0.44250073  0.76102191  0.81842624  1
  N  N36  1  0.22794286  0.19908174  0.38241041  1
  N  N37  1  0.10750746  0.09128219  0.08393632  1
  N  N38  1  0.88210991  0.20880422  0.81006879  1
  N  N39  1  0.80416351  0.07994458  0.59743721  1
  N  N40  1  0.55679771  0.20465619  0.39051577  1
  N  N41  1  0.44896533  0.09062943  0.13518944  1
  N  N42  1  0.22362634  0.20685058  0.87637123  1
  N  N43  1  0.08598658  0.10625726  0.60933928  1
  N  N44  1  0.88593611  0.20461523  0.32776639  1
  N  N45  1  0.78547511  0.09030533  0.07097675  1
  N  N46  1  0.54448024  0.21243788  0.87949432  1
  N  N47  1  0.44324889  0.09555488  0.63608544  1
  N  N48  1  0.22707387  0.54111881  0.38003641  1
  N  N49  1  0.10697033  0.42996987  0.08972792  1
  N  N50  1  0.88609085  0.54067060  0.82777970  1
  N  N51  1  0.79477587  0.39769971  0.59194065  1
  N  N52  1  0.55271782  0.54182959  0.39253612  1
  N  N53  1  0.45000332  0.42594785  0.13542843  1
  N  N54  1  0.22053271  0.54627701  0.88497128  1
  N  N55  1  0.10576819  0.43285139  0.58336317  1
  N  N56  1  0.88284786  0.54168736  0.33277955  1
  N  N57  1  0.78237587  0.42337874  0.07342822  1
  N  N58  1  0.53682771  0.56770638  0.87409882  1
  N  N59  1  0.43964261  0.43061055  0.63614776  1
  N  N60  1  0.22722220  0.86605467  0.39314854  1
  N  N61  1  0.11718245  0.76143319  0.13096146  1
  N  N62  1  0.87655744  0.87865760  0.81308939  1
  N  N63  1  0.79483671  0.77495291  0.59285917  1
  N  N64  1  0.55327744  0.87132895  0.39286999  1
  N  N65  1  0.44585336  0.75996157  0.13923073  1
  N  N66  1  0.24670792  0.85617448  0.87008087  1
  N  N67  1  0.09052589  0.77110852  0.63093018  1
  N  N68  1  0.88457663  0.87538347  0.32843760  1
  N  N69  1  0.78195138  0.75977275  0.07284891  1
  N  N70  1  0.53482297  0.86259048  0.87444840  1
  N  N71  1  0.44450879  0.76087315  0.65531082  1
