# generated using pymatgen
data_Al11BN12
_symmetry_space_group_name_H-M   'P 1'
_cell_length_a   9.31804540
_cell_length_b   9.35457326
_cell_length_c   9.96818354
_cell_angle_alpha   90.06901028
_cell_angle_beta   90.06474829
_cell_angle_gamma   60.03161479
_symmetry_Int_Tables_number   1
_chemical_formula_structural   Al11BN12
_chemical_formula_sum   'Al33 B3 N36'
_cell_volume   752.71978294
_cell_formula_units_Z   3
loop_
 _symmetry_equiv_pos_site_id
 _symmetry_equiv_pos_as_xyz
  1  'x, y, z'
loop_
 _atom_site_type_symbol
 _atom_site_label
 _atom_site_symmetry_multiplicity
 _atom_site_fract_x
 _atom_site_fract_y
 _atom_site_fract_z
 _atom_site_occupancy
  Al  Al0  1  0.10384531  0.09908042  0.39800924  1
  Al  Al1  1  0.21684993  0.20530701  0.13793025  1
  Al  Al2  1  0.78202598  0.09094713  0.87320324  1
  Al  Al3  1  0.45044198  0.08735644  0.33174905  1
  Al  Al4  1  0.56252909  0.20672799  0.13561928  1
  Al  Al5  1  0.10957602  0.09729338  0.87373986  1
  Al  Al6  1  0.21089051  0.21116128  0.63667438  1
  Al  Al7  1  0.78235306  0.09971495  0.39848210  1
  Al  Al8  1  0.88958484  0.20465162  0.13375394  1
  Al  Al9  1  0.44581173  0.08637155  0.82150536  1
  Al  Al10  1  0.56585211  0.21062857  0.63759138  1
  Al  Al11  1  0.11175742  0.42693140  0.38630835  1
  Al  Al12  1  0.22195264  0.54126176  0.13874686  1
  Al  Al13  1  0.77712012  0.42816517  0.87490962  1
  Al  Al14  1  0.89406669  0.53286391  0.63995679  1
  Al  Al15  1  0.44194720  0.42761952  0.39139583  1
  Al  Al16  1  0.55171272  0.55014845  0.06939991  1
  Al  Al17  1  0.11077274  0.42568592  0.89365604  1
  Al  Al18  1  0.21763468  0.53555732  0.64166657  1
  Al  Al19  1  0.78588003  0.42123945  0.39328045  1
  Al  Al20  1  0.88527303  0.54117165  0.13763417  1
  Al  Al21  1  0.44046150  0.42905906  0.88528705  1
  Al  Al22  1  0.55602070  0.54143525  0.58571971  1
  Al  Al23  1  0.10334289  0.76166186  0.39669436  1
  Al  Al24  1  0.23036404  0.86869886  0.06355679  1
  Al  Al25  1  0.77742277  0.75530022  0.88053494  1
  Al  Al26  1  0.44279705  0.76137111  0.32808839  1
  Al  Al27  1  0.54699769  0.87477265  0.06623318  1
  Al  Al28  1  0.11390647  0.75455546  0.87794419  1
  Al  Al29  1  0.21222382  0.87651484  0.59952328  1
  Al  Al30  1  0.78719529  0.76118504  0.39332195  1
  Al  Al31  1  0.88820881  0.87460418  0.13679923  1
  Al  Al32  1  0.55483226  0.87419731  0.58345384  1
  B  B33  1  0.88486560  0.20724564  0.64273141  1
  B  B34  1  0.91016228  0.82651671  0.65604615  1
  B  B35  1  0.44385543  0.75916712  0.81362140  1
  N  N36  1  0.21704978  0.20429750  0.33329502  1
  N  N37  1  0.10826490  0.09780517  0.06906112  1
  N  N38  1  0.88680162  0.20619078  0.80776243  1
  N  N39  1  0.78610476  0.12522655  0.58487137  1
  N  N40  1  0.56157905  0.20840102  0.33191113  1
  N  N41  1  0.44803352  0.08971117  0.12477034  1
  N  N42  1  0.21641169  0.21114631  0.82873686  1
  N  N43  1  0.08063036  0.11300184  0.59307421  1
  N  N44  1  0.89111126  0.20596620  0.32297445  1
  N  N45  1  0.78235847  0.09163256  0.06758787  1
  N  N46  1  0.55796918  0.20727930  0.83086210  1
  N  N47  1  0.44537037  0.09539701  0.62223458  1
  N  N48  1  0.22013571  0.54280199  0.33001790  1
  N  N49  1  0.11076069  0.42797947  0.08333192  1
  N  N50  1  0.89210423  0.53622057  0.82762444  1
  N  N51  1  0.79275866  0.40882499  0.59057659  1
  N  N52  1  0.55609362  0.54452983  0.38535489  1
  N  N53  1  0.44316275  0.42748316  0.07879402  1
  N  N54  1  0.22046255  0.53396779  0.82949710  1
  N  N55  1  0.11066340  0.42736305  0.57532865  1
  N  N56  1  0.88694668  0.54180437  0.33033216  1
  N  N57  1  0.78247933  0.42467699  0.07176758  1
  N  N58  1  0.53853877  0.56895356  0.86832653  1
  N  N59  1  0.43453691  0.43170255  0.58418761  1
  N  N60  1  0.22703109  0.86779704  0.39811169  1
  N  N61  1  0.10814323  0.75997144  0.07213222  1
  N  N62  1  0.89015871  0.86429596  0.80738013  1
  N  N63  1  0.79873054  0.76621422  0.59196240  1
  N  N64  1  0.55554524  0.86911935  0.39064960  1
  N  N65  1  0.44190350  0.76433323  0.13751890  1
  N  N66  1  0.24686813  0.85839324  0.86059764  1
  N  N67  1  0.08169277  0.76514692  0.59540143  1
  N  N68  1  0.88697794  0.87828182  0.32822027  1
  N  N69  1  0.78102080  0.76097345  0.07378744  1
  N  N70  1  0.53876831  0.86009460  0.87034685  1
  N  N71  1  0.44474840  0.76203159  0.65299990  1
