# generated using pymatgen
data_Al11BN12
_symmetry_space_group_name_H-M   'P 1'
_cell_length_a   9.26701945
_cell_length_b   9.33022911
_cell_length_c   9.98998464
_cell_angle_alpha   90.24017956
_cell_angle_beta   89.74389798
_cell_angle_gamma   60.04643025
_symmetry_Int_Tables_number   1
_chemical_formula_structural   Al11BN12
_chemical_formula_sum   'Al33 B3 N36'
_cell_volume   748.36688164
_cell_formula_units_Z   3
loop_
 _symmetry_equiv_pos_site_id
 _symmetry_equiv_pos_as_xyz
  1  'x, y, z'
loop_
 _atom_site_type_symbol
 _atom_site_label
 _atom_site_symmetry_multiplicity
 _atom_site_fract_x
 _atom_site_fract_y
 _atom_site_fract_z
 _atom_site_occupancy
  Al  Al0  1  0.10280315  0.10181682  0.39331230  1
  Al  Al1  1  0.22163449  0.20258221  0.13439676  1
  Al  Al2  1  0.77989981  0.09161757  0.86829525  1
  Al  Al3  1  0.44608667  0.09521112  0.38666510  1
  Al  Al4  1  0.55960331  0.20377232  0.13277298  1
  Al  Al5  1  0.10894620  0.09876918  0.86780783  1
  Al  Al6  1  0.21774867  0.20841655  0.63549552  1
  Al  Al7  1  0.78156522  0.09932703  0.39357562  1
  Al  Al8  1  0.89214431  0.20192948  0.12956464  1
  Al  Al9  1  0.44331577  0.09020373  0.88544843  1
  Al  Al10  1  0.56179134  0.20897530  0.63437983  1
  Al  Al11  1  0.11120865  0.42692364  0.38317249  1
  Al  Al12  1  0.22171142  0.54194897  0.13447596  1
  Al  Al13  1  0.77211610  0.43179010  0.87965945  1
  Al  Al14  1  0.89242543  0.53299504  0.63720719  1
  Al  Al15  1  0.44451952  0.42782925  0.38597312  1
  Al  Al16  1  0.56041319  0.53236205  0.13611980  1
  Al  Al17  1  0.11126396  0.42607767  0.88858553  1
  Al  Al18  1  0.21894256  0.53596520  0.63711248  1
  Al  Al19  1  0.78045587  0.42334540  0.39034359  1
  Al  Al20  1  0.88779539  0.53900437  0.13614932  1
  Al  Al21  1  0.44451058  0.43203796  0.88522986  1
  Al  Al22  1  0.55848233  0.53297967  0.63596754  1
  Al  Al23  1  0.10192420  0.76092939  0.39304574  1
  Al  Al24  1  0.23774042  0.86584085  0.05312251  1
  Al  Al25  1  0.77100924  0.75747082  0.88417323  1
  Al  Al26  1  0.43611389  0.76480557  0.32494647  1
  Al  Al27  1  0.56053730  0.87480473  0.13798436  1
  Al  Al28  1  0.11325198  0.75467575  0.87264089  1
  Al  Al29  1  0.20784617  0.87959027  0.59114693  1
  Al  Al30  1  0.78208033  0.76435993  0.39062533  1
  Al  Al31  1  0.89205310  0.87439192  0.13333453  1
  Al  Al32  1  0.55957885  0.87863177  0.63887810  1
  B  B33  1  0.88361422  0.20764422  0.63825134  1
  B  B34  1  0.90730230  0.82828407  0.65242542  1
  B  B35  1  0.43969547  0.76332973  0.79933819  1
  N  N36  1  0.22221889  0.20222418  0.32646128  1
  N  N37  1  0.11033636  0.09699411  0.06276452  1
  N  N38  1  0.88422666  0.20929324  0.80377473  1
  N  N39  1  0.78483117  0.12442230  0.58110913  1
  N  N40  1  0.55829166  0.20514688  0.32546747  1
  N  N41  1  0.44590019  0.09329501  0.07610128  1
  N  N42  1  0.22352847  0.20777044  0.82360602  1
  N  N43  1  0.07938910  0.11658424  0.58910402  1
  N  N44  1  0.89104676  0.20587240  0.31887605  1
  N  N45  1  0.78180374  0.09115780  0.06335944  1
  N  N46  1  0.55333955  0.20602894  0.82481516  1
  N  N47  1  0.44536529  0.09693897  0.57674093  1
  N  N48  1  0.22025646  0.54249687  0.32607183  1
  N  N49  1  0.11235382  0.42648969  0.07880786  1
  N  N50  1  0.89041750  0.53695761  0.82613046  1
  N  N51  1  0.78626340  0.41359916  0.58265485  1
  N  N52  1  0.56050157  0.53269550  0.33099080  1
  N  N53  1  0.44566460  0.42683726  0.07557701  1
  N  N54  1  0.22357653  0.53327527  0.82497241  1
  N  N55  1  0.11152964  0.42616898  0.57283433  1
  N  N56  1  0.88644071  0.54164187  0.32889644  1
  N  N57  1  0.77993550  0.42528910  0.07101232  1
  N  N58  1  0.54398964  0.55954309  0.82787435  1
  N  N59  1  0.43824534  0.43341159  0.57560180  1
  N  N60  1  0.22336810  0.87007408  0.39440346  1
  N  N61  1  0.11062286  0.75967547  0.06586341  1
  N  N62  1  0.88822935  0.86367405  0.80425946  1
  N  N63  1  0.79340647  0.76909633  0.58687114  1
  N  N64  1  0.56132871  0.87336745  0.33418339  1
  N  N65  1  0.44072691  0.76344347  0.13101696  1
  N  N66  1  0.24925441  0.85792042  0.85336861  1
  N  N67  1  0.07968665  0.76556034  0.59129766  1
  N  N68  1  0.88772763  0.87778085  0.32448351  1
  N  N69  1  0.78084143  0.76085228  0.07407786  1
  N  N70  1  0.54500479  0.86271705  0.82951817  1
  N  N71  1  0.43618368  0.76710091  0.63600005  1
