# generated using pymatgen
data_Al11BN12
_symmetry_space_group_name_H-M   'P 1'
_cell_length_a   9.24595980
_cell_length_b   9.25430389
_cell_length_c   10.15349188
_cell_angle_alpha   89.99981933
_cell_angle_beta   90.58297986
_cell_angle_gamma   59.97003550
_symmetry_Int_Tables_number   1
_chemical_formula_structural   Al11BN12
_chemical_formula_sum   'Al33 B3 N36'
_cell_volume   752.10867989
_cell_formula_units_Z   3
loop_
 _symmetry_equiv_pos_site_id
 _symmetry_equiv_pos_as_xyz
  1  'x, y, z'
loop_
 _atom_site_type_symbol
 _atom_site_label
 _atom_site_symmetry_multiplicity
 _atom_site_fract_x
 _atom_site_fract_y
 _atom_site_fract_z
 _atom_site_occupancy
  Al  Al0  1  0.12055274  0.08825121  0.32163231  1
  Al  Al1  1  0.22098530  0.20606946  0.07333663  1
  Al  Al2  1  0.77855766  0.09401572  0.87971917  1
  Al  Al3  1  0.45197680  0.09055467  0.32725161  1
  Al  Al4  1  0.55171728  0.20743529  0.07084215  1
  Al  Al5  1  0.11537379  0.09087969  0.81886740  1
  Al  Al6  1  0.21405702  0.20765598  0.57139743  1
  Al  Al7  1  0.79573353  0.08542728  0.40511654  1
  Al  Al8  1  0.88260550  0.20746834  0.14024364  1
  Al  Al9  1  0.43835896  0.09171924  0.82255407  1
  Al  Al10  1  0.55662696  0.20498113  0.58291709  1
  Al  Al11  1  0.11810183  0.42424328  0.32327043  1
  Al  Al12  1  0.22098589  0.53953312  0.07333646  1
  Al  Al13  1  0.77592437  0.43061878  0.88205783  1
  Al  Al14  1  0.88392346  0.54133296  0.64169667  1
  Al  Al15  1  0.45197712  0.42405650  0.32725154  1
  Al  Al16  1  0.54708174  0.54639336  0.06873072  1
  Al  Al17  1  0.11593259  0.42532807  0.82230732  1
  Al  Al18  1  0.21405699  0.54487596  0.57139752  1
  Al  Al19  1  0.78874320  0.41657773  0.40089458  1
  Al  Al20  1  0.87890077  0.54384420  0.14124886  1
  Al  Al21  1  0.43835943  0.43651010  0.82255409  1
  Al  Al22  1  0.55267436  0.53853234  0.58486864  1
  Al  Al23  1  0.12055266  0.75778377  0.32163216  1
  Al  Al24  1  0.22673170  0.86992806  0.06722683  1
  Al  Al25  1  0.77592405  0.76004646  0.88205752  1
  Al  Al26  1  0.44987082  0.75835837  0.32770177  1
  Al  Al27  1  0.54708139  0.87311334  0.06873062  1
  Al  Al28  1  0.11537374  0.76033556  0.81886743  1
  Al  Al29  1  0.21095230  0.87781804  0.57778140  1
  Al  Al30  1  0.78874254  0.76126791  0.40089460  1
  Al  Al31  1  0.88260548  0.87651463  0.14024349  1
  Al  Al32  1  0.55267375  0.87538259  0.58486867  1
  B  B33  1  0.88948203  0.20003116  0.65288823  1
  B  B34  1  0.88948177  0.87707676  0.65288822  1
  B  B35  1  0.44159433  0.76249692  0.82066012  1
  N  N36  1  0.22474103  0.20373424  0.38451985  1
  N  N37  1  0.11895650  0.08832533  0.13112831  1
  N  N38  1  0.87628690  0.21188597  0.81184359  1
  N  N39  1  0.80575911  0.08041517  0.59795850  1
  N  N40  1  0.55837231  0.20410758  0.39262873  1
  N  N41  1  0.44856620  0.09169621  0.13641502  1
  N  N42  1  0.21717454  0.20669354  0.88605902  1
  N  N43  1  0.09209192  0.10397132  0.63098669  1
  N  N44  1  0.88508832  0.20575335  0.32802198  1
  N  N45  1  0.78748839  0.08955041  0.06925336  1
  N  N46  1  0.54230417  0.21214176  0.88111958  1
  N  N47  1  0.43918441  0.09692162  0.63744551  1
  N  N48  1  0.22474138  0.53811216  0.38451992  1
  N  N49  1  0.11523858  0.42567493  0.13441484  1
  N  N50  1  0.88210921  0.54224008  0.82740356  1
  N  N51  1  0.79529014  0.39603781  0.59129308  1
  N  N52  1  0.55295814  0.54157332  0.39420955  1
  N  N53  1  0.44856659  0.42632549  0.13641491  1
  N  N54  1  0.21717467  0.54272004  0.88605880  1
  N  N55  1  0.11640313  0.42509282  0.63225284  1
  N  N56  1  0.88129374  0.54264757  0.33494422  1
  N  N57  1  0.78260634  0.42341549  0.07196076  1
  N  N58  1  0.53390619  0.56967847  0.87596353  1
  N  N59  1  0.43918466  0.43048308  0.63744555  1
  N  N60  1  0.22549267  0.87054718  0.38999660  1
  N  N61  1  0.11895655  0.75930609  0.13112816  1
  N  N62  1  0.87628685  0.87841641  0.81184352  1
  N  N63  1  0.79528954  0.77526209  0.59129299  1
  N  N64  1  0.55295761  0.87205598  0.39420966  1
  N  N65  1  0.44727973  0.75965408  0.14021102  1
  N  N66  1  0.24107439  0.86275689  0.87559557  1
  N  N67  1  0.09209166  0.77052567  0.63098676  1
  N  N68  1  0.88508824  0.87574654  0.32802182  1
  N  N69  1  0.78260604  0.76056778  0.07196042  1
  N  N70  1  0.53390610  0.86300342  0.87596346  1
  N  N71  1  0.44205822  0.76226532  0.65655828  1
