# generated using pymatgen
data_Al11BN12
_symmetry_space_group_name_H-M   'P 1'
_cell_length_a   9.25907967
_cell_length_b   9.25657621
_cell_length_c   9.89723223
_cell_angle_alpha   89.99997136
_cell_angle_beta   89.91030242
_cell_angle_gamma   60.00902141
_symmetry_Int_Tables_number   1
_chemical_formula_structural   Al11BN12
_chemical_formula_sum   'Al33 B3 N36'
_cell_volume   734.68531277
_cell_formula_units_Z   3
loop_
 _symmetry_equiv_pos_site_id
 _symmetry_equiv_pos_as_xyz
  1  'x, y, z'
loop_
 _atom_site_type_symbol
 _atom_site_label
 _atom_site_symmetry_multiplicity
 _atom_site_fract_x
 _atom_site_fract_y
 _atom_site_fract_z
 _atom_site_occupancy
  Al  Al0  1  0.10553298  0.09563687  0.41049393  1
  Al  Al1  1  0.22089451  0.20490986  0.15714806  1
  Al  Al2  1  0.78029851  0.09318469  0.89407844  1
  Al  Al3  1  0.44473437  0.09285553  0.40622117  1
  Al  Al4  1  0.55851145  0.20407799  0.15590933  1
  Al  Al5  1  0.11486671  0.09117584  0.90164444  1
  Al  Al6  1  0.21623487  0.20759777  0.65704991  1
  Al  Al7  1  0.78270144  0.09198299  0.41524827  1
  Al  Al8  1  0.88811277  0.20466076  0.15451795  1
  Al  Al9  1  0.44266336  0.09142911  0.90686573  1
  Al  Al10  1  0.56136113  0.20265290  0.65627558  1
  Al  Al11  1  0.10974902  0.42845884  0.40620104  1
  Al  Al12  1  0.22089446  0.54086267  0.15714787  1
  Al  Al13  1  0.77557571  0.43026290  0.89985405  1
  Al  Al14  1  0.89005978  0.53830327  0.65588080  1
  Al  Al15  1  0.44473414  0.42907767  0.40622131  1
  Al  Al16  1  0.55573972  0.54052554  0.14941123  1
  Al  Al17  1  0.11055874  0.42805434  0.90806830  1
  Al  Al18  1  0.21623454  0.54283511  0.65705016  1
  Al  Al19  1  0.77759097  0.42330083  0.41064165  1
  Al  Al20  1  0.88647557  0.54009553  0.15671770  1
  Al  Al21  1  0.44266328  0.43257551  0.90686551  1
  Al  Al22  1  0.55544101  0.53927778  0.66115277  1
  Al  Al23  1  0.10553295  0.76549662  0.41049401  1
  Al  Al24  1  0.22305421  0.87180614  0.14986512  1
  Al  Al25  1  0.77557556  0.76082914  0.89985406  1
  Al  Al26  1  0.44446242  0.76110264  0.40459490  1
  Al  Al27  1  0.55573991  0.87040127  0.14941120  1
  Al  Al28  1  0.11486657  0.76062563  0.90164439  1
  Al  Al29  1  0.21820802  0.87422996  0.66104522  1
  Al  Al30  1  0.77759137  0.76577477  0.41064175  1
  Al  Al31  1  0.88811252  0.87389410  0.15451800  1
  Al  Al32  1  0.55544103  0.87194773  0.66115288  1
  B  B33  1  0.89453581  0.19715120  0.66347218  1
  B  B34  1  0.89453585  0.87498010  0.66347228  1
  B  B35  1  0.44455576  0.76105594  0.90929300  1
  N  N36  1  0.22041906  0.20420219  0.34968978  1
  N  N37  1  0.10932504  0.09538232  0.09314779  1
  N  N38  1  0.89120631  0.20445572  0.82642901  1
  N  N39  1  0.80019207  0.08323756  0.61112882  1
  N  N40  1  0.55911462  0.20377662  0.35057624  1
  N  N41  1  0.44378017  0.09541232  0.09809032  1
  N  N42  1  0.22178464  0.20680053  0.84720531  1
  N  N43  1  0.08672328  0.10467677  0.60646498  1
  N  N44  1  0.88736976  0.20467001  0.34506632  1
  N  N45  1  0.77943003  0.09361870  0.08788499  1
  N  N46  1  0.55402125  0.20632330  0.84680254  1
  N  N47  1  0.44293282  0.09381078  0.59875785  1
  N  N48  1  0.22041902  0.54204575  0.34968965  1
  N  N49  1  0.11015111  0.42825787  0.09992800  1
  N  N50  1  0.89016740  0.53825020  0.84545069  1
  N  N51  1  0.78676383  0.40304615  0.60603340  1
  N  N52  1  0.55640024  0.53965520  0.34340728  1
  N  N53  1  0.44377986  0.42747458  0.09809007  1
  N  N54  1  0.22178437  0.53808292  0.84720550  1
  N  N55  1  0.11039745  0.42813493  0.59615519  1
  N  N56  1  0.88476915  0.54094880  0.35125199  1
  N  N57  1  0.77945007  0.42563890  0.09214943  1
  N  N58  1  0.54275936  0.56381736  0.85423598  1
  N  N59  1  0.44293254  0.42992320  0.59875788  1
  N  N60  1  0.22136362  0.87265159  0.34580179  1
  N  N61  1  0.10932472  0.76195962  0.09314772  1
  N  N62  1  0.89120617  0.87100585  0.82642907  1
  N  N63  1  0.78676391  0.77685645  0.60603353  1
  N  N64  1  0.55640053  0.87061199  0.34340730  1
  N  N65  1  0.44409089  0.76128787  0.07630878  1
  N  N66  1  0.24795253  0.85935776  0.85324497  1
  N  N67  1  0.08672319  0.77526740  0.60646509  1
  N  N68  1  0.88736969  0.87462771  0.34506644  1
  N  N69  1  0.77945022  0.76157777  0.09214957  1
  N  N70  1  0.54275916  0.86009110  0.85423619  1
  N  N71  1  0.44390290  0.76138187  0.59452183  1
