# generated using pymatgen
data_Al11BN12
_symmetry_space_group_name_H-M   'P 1'
_cell_length_a   9.32111434
_cell_length_b   9.32592109
_cell_length_c   9.99408104
_cell_angle_alpha   90.06143618
_cell_angle_beta   90.46915048
_cell_angle_gamma   59.97821032
_symmetry_Int_Tables_number   1
_chemical_formula_structural   Al11BN12
_chemical_formula_sum   'Al33 B3 N36'
_cell_volume   752.17771451
_cell_formula_units_Z   3
loop_
 _symmetry_equiv_pos_site_id
 _symmetry_equiv_pos_as_xyz
  1  'x, y, z'
loop_
 _atom_site_type_symbol
 _atom_site_label
 _atom_site_symmetry_multiplicity
 _atom_site_fract_x
 _atom_site_fract_y
 _atom_site_fract_z
 _atom_site_occupancy
  Al  Al0  1  0.10628682  0.09991176  0.40115424  1
  Al  Al1  1  0.21676096  0.20551355  0.13692192  1
  Al  Al2  1  0.78130872  0.09275198  0.87649305  1
  Al  Al3  1  0.45342458  0.08914807  0.32630150  1
  Al  Al4  1  0.55343309  0.20668998  0.07063317  1
  Al  Al5  1  0.10922184  0.09709746  0.87519729  1
  Al  Al6  1  0.21019279  0.21103159  0.64190937  1
  Al  Al7  1  0.79023492  0.08933120  0.39847118  1
  Al  Al8  1  0.89016658  0.20326583  0.13718504  1
  Al  Al9  1  0.44718118  0.08777767  0.82246661  1
  Al  Al10  1  0.55930198  0.20324850  0.58013069  1
  Al  Al11  1  0.11024901  0.42438961  0.39000513  1
  Al  Al12  1  0.22567596  0.53862342  0.07068564  1
  Al  Al13  1  0.77524587  0.42987161  0.87936997  1
  Al  Al14  1  0.88858277  0.53919589  0.64055482  1
  Al  Al15  1  0.44581295  0.42876524  0.32592282  1
  Al  Al16  1  0.54846252  0.54633301  0.06981238  1
  Al  Al17  1  0.10510813  0.42503719  0.88873337  1
  Al  Al18  1  0.22040011  0.53948950  0.58548501  1
  Al  Al19  1  0.78513021  0.41937403  0.39474443  1
  Al  Al20  1  0.88493835  0.54110945  0.13958569  1
  Al  Al21  1  0.44270397  0.43329291  0.82072815  1
  Al  Al22  1  0.55588793  0.53675611  0.58208610  1
  Al  Al23  1  0.10391372  0.76814801  0.39804236  1
  Al  Al24  1  0.23121648  0.86845311  0.06269081  1
  Al  Al25  1  0.77651783  0.75994983  0.88017405  1
  Al  Al26  1  0.44261047  0.76210938  0.32847987  1
  Al  Al27  1  0.54872446  0.87211824  0.06921976  1
  Al  Al28  1  0.10891145  0.76259763  0.86657138  1
  Al  Al29  1  0.21813412  0.87494215  0.60322715  1
  Al  Al30  1  0.78647797  0.76125780  0.39508675  1
  Al  Al31  1  0.89038640  0.87331727  0.13721174  1
  Al  Al32  1  0.55574406  0.87410814  0.58174077  1
  B  B33  1  0.89223569  0.19992803  0.64833586  1
  B  B34  1  0.89295087  0.87290917  0.64930010  1
  B  B35  1  0.44547826  0.76052384  0.81587745  1
  N  N36  1  0.21850432  0.20399180  0.33443260  1
  N  N37  1  0.10806157  0.09789317  0.06965463  1
  N  N38  1  0.88485664  0.20731605  0.80904306  1
  N  N39  1  0.80337638  0.08215290  0.59507903  1
  N  N40  1  0.55649580  0.20621182  0.38661696  1
  N  N41  1  0.45160493  0.08997237  0.13160277  1
  N  N42  1  0.21664872  0.20945116  0.83184293  1
  N  N43  1  0.08212509  0.11097877  0.59714272  1
  N  N44  1  0.89103908  0.20304139  0.32714614  1
  N  N45  1  0.78638200  0.09056719  0.07154778  1
  N  N46  1  0.54775726  0.20973402  0.87822347  1
  N  N47  1  0.44563552  0.09393126  0.63172902  1
  N  N48  1  0.22578733  0.54018769  0.38398992  1
  N  N49  1  0.10716356  0.42652496  0.08241228  1
  N  N50  1  0.88583174  0.53995557  0.82718952  1
  N  N51  1  0.79349960  0.39848812  0.59022790  1
  N  N52  1  0.55292588  0.54210241  0.38858637  1
  N  N53  1  0.44627352  0.42799628  0.13321603  1
  N  N54  1  0.22366924  0.53442066  0.87047790  1
  N  N55  1  0.10573399  0.42568074  0.58222294  1
  N  N56  1  0.88573412  0.54044914  0.33225721  1
  N  N57  1  0.78117411  0.42403411  0.07450513  1
  N  N58  1  0.53648932  0.56778763  0.87428083  1
  N  N59  1  0.44503480  0.42694296  0.63422533  1
  N  N60  1  0.22961241  0.87035788  0.39977165  1
  N  N61  1  0.10558323  0.76743194  0.07141955  1
  N  N62  1  0.88292657  0.87457223  0.80901568  1
  N  N63  1  0.79489533  0.77367285  0.58993189  1
  N  N64  1  0.55389433  0.87092891  0.38886896  1
  N  N65  1  0.44278327  0.76241867  0.13836353  1
  N  N66  1  0.24788798  0.86005712  0.85847443  1
  N  N67  1  0.08314621  0.77397246  0.60288930  1
  N  N68  1  0.88958610  0.87409615  0.32718643  1
  N  N69  1  0.78210850  0.76077124  0.07447030  1
  N  N70  1  0.53720908  0.86139519  0.87449027  1
  N  N71  1  0.45142656  0.75764540  0.65437842  1
