# generated using pymatgen
data_Al11BN12
_symmetry_space_group_name_H-M   'P 1'
_cell_length_a   9.28033963
_cell_length_b   9.25989083
_cell_length_c   10.10634681
_cell_angle_alpha   89.95193996
_cell_angle_beta   90.48056577
_cell_angle_gamma   59.98036304
_symmetry_Int_Tables_number   1
_chemical_formula_structural   Al11BN12
_chemical_formula_sum   'Al33 B3 N36'
_cell_volume   751.94482802
_cell_formula_units_Z   3
loop_
 _symmetry_equiv_pos_site_id
 _symmetry_equiv_pos_as_xyz
  1  'x, y, z'
loop_
 _atom_site_type_symbol
 _atom_site_label
 _atom_site_symmetry_multiplicity
 _atom_site_fract_x
 _atom_site_fract_y
 _atom_site_fract_z
 _atom_site_occupancy
  Al  Al0  1  0.12076252  0.08880102  0.32001742  1
  Al  Al1  1  0.21890245  0.20761672  0.06989532  1
  Al  Al2  1  0.77718412  0.08882609  0.81386367  1
  Al  Al3  1  0.44717099  0.09240840  0.32260312  1
  Al  Al4  1  0.55530779  0.20393345  0.07101005  1
  Al  Al5  1  0.11591816  0.09037700  0.82059937  1
  Al  Al6  1  0.21535440  0.20821001  0.57055823  1
  Al  Al7  1  0.77777092  0.09130269  0.32844662  1
  Al  Al8  1  0.88413781  0.21024115  0.13671011  1
  Al  Al9  1  0.44152077  0.09104545  0.82106954  1
  Al  Al10  1  0.56300076  0.20223991  0.57241637  1
  Al  Al11  1  0.11850692  0.42500889  0.32230027  1
  Al  Al12  1  0.21848056  0.54053857  0.07244646  1
  Al  Al13  1  0.77771299  0.42924374  0.88663749  1
  Al  Al14  1  0.88471005  0.54103083  0.64240826  1
  Al  Al15  1  0.44866006  0.42867877  0.32329176  1
  Al  Al16  1  0.54390018  0.54778918  0.06735221  1
  Al  Al17  1  0.11735398  0.42504187  0.82124512  1
  Al  Al18  1  0.21695105  0.54275068  0.56953130  1
  Al  Al19  1  0.78991934  0.41574944  0.40065868  1
  Al  Al20  1  0.87599210  0.54546836  0.14493101  1
  Al  Al21  1  0.44179777  0.43338543  0.82202880  1
  Al  Al22  1  0.55391915  0.53689175  0.58431344  1
  Al  Al23  1  0.11398873  0.76355372  0.32551357  1
  Al  Al24  1  0.22468297  0.86899867  0.06546097  1
  Al  Al25  1  0.77357341  0.75626584  0.88423932  1
  Al  Al26  1  0.44968256  0.75856653  0.32610723  1
  Al  Al27  1  0.54273640  0.87442276  0.06931656  1
  Al  Al28  1  0.10876140  0.76276753  0.81542307  1
  Al  Al29  1  0.21363693  0.87778863  0.57576321  1
  Al  Al30  1  0.78535762  0.75902604  0.40251245  1
  Al  Al31  1  0.89053154  0.87513700  0.06952242  1
  Al  Al32  1  0.55259349  0.87572752  0.58395685  1
  B  B33  1  0.89404750  0.20124125  0.64438557  1
  B  B34  1  0.90208963  0.87852062  0.56575945  1
  B  B35  1  0.44115989  0.76135062  0.81913934  1
  N  N36  1  0.22441247  0.20456482  0.38293531  1
  N  N37  1  0.11761575  0.08819010  0.12616487  1
  N  N38  1  0.88455054  0.20955270  0.82993096  1
  N  N39  1  0.80082818  0.08247688  0.62193404  1
  N  N40  1  0.55639375  0.20563531  0.38440284  1
  N  N41  1  0.44231901  0.09451626  0.13215649  1
  N  N42  1  0.22106710  0.20576811  0.88224921  1
  N  N43  1  0.09075487  0.10487160  0.62921581  1
  N  N44  1  0.89046215  0.20954684  0.32752938  1
  N  N45  1  0.77274522  0.08833990  0.13606952  1
  N  N46  1  0.55603971  0.20416154  0.88054842  1
  N  N47  1  0.44142426  0.09822410  0.63404903  1
  N  N48  1  0.22485858  0.53944295  0.38199661  1
  N  N49  1  0.11168161  0.42706363  0.13235683  1
  N  N50  1  0.88453881  0.53957003  0.82900009  1
  N  N51  1  0.79705831  0.39327743  0.59219894  1
  N  N52  1  0.55469660  0.54092839  0.39270002  1
  N  N53  1  0.44445426  0.42809743  0.13211308  1
  N  N54  1  0.21993823  0.54171462  0.88287691  1
  N  N55  1  0.11636656  0.42598948  0.63057399  1
  N  N56  1  0.88351299  0.54283950  0.33753835  1
  N  N57  1  0.77718793  0.42775804  0.07620145  1
  N  N58  1  0.53615707  0.56782607  0.87389004  1
  N  N59  1  0.44179823  0.42695024  0.63485783  1
  N  N60  1  0.22826569  0.87086684  0.38776664  1
  N  N61  1  0.11005982  0.76311040  0.13504099  1
  N  N62  1  0.89176871  0.87417414  0.88104938  1
  N  N63  1  0.79121398  0.77191773  0.59388137  1
  N  N64  1  0.55265370  0.87414648  0.39005704  1
  N  N65  1  0.44208494  0.76062969  0.13842813  1
  N  N66  1  0.24303833  0.85921606  0.87173534  1
  N  N67  1  0.08802774  0.77373296  0.62473410  1
  N  N68  1  0.90043749  0.87767799  0.40398208  1
  N  N69  1  0.77397610  0.75976812  0.07992935  1
  N  N70  1  0.53397989  0.86254914  0.87426943  1
  N  N71  1  0.44245556  0.76163248  0.65418028  1
