# generated using pymatgen
data_Al11BN12
_symmetry_space_group_name_H-M   'P 1'
_cell_length_a   9.33368765
_cell_length_b   9.34913521
_cell_length_c   9.97301392
_cell_angle_alpha   90.02804928
_cell_angle_beta   90.56848049
_cell_angle_gamma   59.94422165
_symmetry_Int_Tables_number   1
_chemical_formula_structural   Al11BN12
_chemical_formula_sum   'Al33 B3 N36'
_cell_volume   753.19979398
_cell_formula_units_Z   3
loop_
 _symmetry_equiv_pos_site_id
 _symmetry_equiv_pos_as_xyz
  1  'x, y, z'
loop_
 _atom_site_type_symbol
 _atom_site_label
 _atom_site_symmetry_multiplicity
 _atom_site_fract_x
 _atom_site_fract_y
 _atom_site_fract_z
 _atom_site_occupancy
  Al  Al0  1  0.10261230  0.09657595  0.39835965  1
  Al  Al1  1  0.22528688  0.20189315  0.07250410  1
  Al  Al2  1  0.78053045  0.09341242  0.87878916  1
  Al  Al3  1  0.44636627  0.09201602  0.32656682  1
  Al  Al4  1  0.55268411  0.20706961  0.07207084  1
  Al  Al5  1  0.10901390  0.09424962  0.86924327  1
  Al  Al6  1  0.22071429  0.20517946  0.58827852  1
  Al  Al7  1  0.78852264  0.08886527  0.39896203  1
  Al  Al8  1  0.89046323  0.20279014  0.13739035  1
  Al  Al9  1  0.44384049  0.08999297  0.82170737  1
  Al  Al10  1  0.55997216  0.20333506  0.58139083  1
  Al  Al11  1  0.10754051  0.42877845  0.38947822  1
  Al  Al12  1  0.22411327  0.54179122  0.07114866  1
  Al  Al13  1  0.77549036  0.42989122  0.88048956  1
  Al  Al14  1  0.88866467  0.53922407  0.64181884  1
  Al  Al15  1  0.44714250  0.42744554  0.32584129  1
  Al  Al16  1  0.54852344  0.54618657  0.07013102  1
  Al  Al17  1  0.10342162  0.43192818  0.88352541  1
  Al  Al18  1  0.22080288  0.54187665  0.58502202  1
  Al  Al19  1  0.78469375  0.41936466  0.39539295  1
  Al  Al20  1  0.88555714  0.54045859  0.13991156  1
  Al  Al21  1  0.44350415  0.43280963  0.82181472  1
  Al  Al22  1  0.55655263  0.53648291  0.58320785  1
  Al  Al23  1  0.10730897  0.76566506  0.38195712  1
  Al  Al24  1  0.22907359  0.86595107  0.06213707  1
  Al  Al25  1  0.77491792  0.76124029  0.88174277  1
  Al  Al26  1  0.44359583  0.76163125  0.32813220  1
  Al  Al27  1  0.54787012  0.87173907  0.07030533  1
  Al  Al28  1  0.11156477  0.76171631  0.84219707  1
  Al  Al29  1  0.21871077  0.87432001  0.60110557  1
  Al  Al30  1  0.78495255  0.76209834  0.39588049  1
  Al  Al31  1  0.88953606  0.87330471  0.13718108  1
  Al  Al32  1  0.55671897  0.87361206  0.58312712  1
  B  B33  1  0.89354729  0.20012080  0.64985459  1
  B  B34  1  0.88983018  0.87558554  0.65080431  1
  B  B35  1  0.44581961  0.76073492  0.81629007  1
  N  N36  1  0.22626817  0.19971059  0.38425827  1
  N  N37  1  0.10550584  0.09357056  0.07167888  1
  N  N38  1  0.88374414  0.20803974  0.80968466  1
  N  N39  1  0.80376586  0.08035204  0.59543933  1
  N  N40  1  0.55538393  0.20561385  0.38698047  1
  N  N41  1  0.44659705  0.09198041  0.13361046  1
  N  N42  1  0.22460582  0.20598401  0.86999512  1
  N  N43  1  0.08276916  0.10917895  0.60180845  1
  N  N44  1  0.88879360  0.20347179  0.32769978  1
  N  N45  1  0.78473175  0.09098640  0.07336476  1
  N  N46  1  0.54740605  0.20986875  0.87876151  1
  N  N47  1  0.44610543  0.09390643  0.63471905  1
  N  N48  1  0.22647960  0.53982500  0.38497954  1
  N  N49  1  0.10628149  0.43016419  0.08562500  1
  N  N50  1  0.88383783  0.54160541  0.82820108  1
  N  N51  1  0.79460213  0.39789594  0.59070165  1
  N  N52  1  0.55261511  0.54204306  0.38923156  1
  N  N53  1  0.44646184  0.42787672  0.13332107  1
  N  N54  1  0.22444082  0.53733623  0.87226020  1
  N  N55  1  0.10525131  0.43123154  0.58945306  1
  N  N56  1  0.88451164  0.54091237  0.33328720  1
  N  N57  1  0.78142126  0.42369953  0.07530032  1
  N  N58  1  0.53721624  0.56755121  0.87407153  1
  N  N59  1  0.44549629  0.42702113  0.63465780  1
  N  N60  1  0.22912292  0.86864661  0.39970069  1
  N  N61  1  0.10745939  0.76582648  0.08584580  1
  N  N62  1  0.87867264  0.87709010  0.81090031  1
  N  N63  1  0.79507462  0.77427514  0.59060979  1
  N  N64  1  0.55286290  0.87164935  0.38937994  1
  N  N65  1  0.44260840  0.76188248  0.13816417  1
  N  N66  1  0.24904239  0.85873387  0.85937168  1
  N  N67  1  0.08715134  0.77266596  0.61745181  1
  N  N68  1  0.88753414  0.87451391  0.32870647  1
  N  N69  1  0.78050887  0.76130871  0.07593122  1
  N  N70  1  0.53668134  0.86193163  0.87438850  1
  N  N71  1  0.45140638  0.75781379  0.65411503  1
