# generated using pymatgen
data_Al11BN12
_symmetry_space_group_name_H-M   'P 1'
_cell_length_a   9.25911368
_cell_length_b   9.31222357
_cell_length_c   9.92951028
_cell_angle_alpha   90.24459389
_cell_angle_beta   89.75495560
_cell_angle_gamma   60.07019469
_symmetry_Int_Tables_number   1
_chemical_formula_structural   Al11BN12
_chemical_formula_sum   'Al33 B3 N36'
_cell_volume   741.94583412
_cell_formula_units_Z   3
loop_
 _symmetry_equiv_pos_site_id
 _symmetry_equiv_pos_as_xyz
  1  'x, y, z'
loop_
 _atom_site_type_symbol
 _atom_site_label
 _atom_site_symmetry_multiplicity
 _atom_site_fract_x
 _atom_site_fract_y
 _atom_site_fract_z
 _atom_site_occupancy
  Al  Al0  1  0.10297768  0.09972338  0.40114121  1
  Al  Al1  1  0.22196905  0.20334925  0.14524465  1
  Al  Al2  1  0.78040056  0.09148758  0.87898211  1
  Al  Al3  1  0.44569683  0.09503544  0.39635574  1
  Al  Al4  1  0.55895988  0.20405183  0.14324812  1
  Al  Al5  1  0.11286249  0.09312325  0.88255005  1
  Al  Al6  1  0.21812509  0.20736793  0.64553714  1
  Al  Al7  1  0.78141455  0.09870656  0.40412984  1
  Al  Al8  1  0.88874709  0.20451437  0.14038776  1
  Al  Al9  1  0.44226759  0.09060082  0.89599485  1
  Al  Al10  1  0.56223829  0.20825410  0.64461559  1
  Al  Al11  1  0.11067777  0.42736526  0.39395873  1
  Al  Al12  1  0.22190249  0.54072581  0.14558224  1
  Al  Al13  1  0.77338825  0.43133440  0.88993398  1
  Al  Al14  1  0.89268904  0.53315313  0.64699344  1
  Al  Al15  1  0.44419642  0.42875641  0.39596445  1
  Al  Al16  1  0.55660704  0.53934233  0.14647623  1
  Al  Al17  1  0.11095558  0.42646284  0.89876388  1
  Al  Al18  1  0.21899238  0.53702889  0.64724462  1
  Al  Al19  1  0.77944309  0.42337798  0.40053010  1
  Al  Al20  1  0.88616981  0.53979636  0.14639326  1
  Al  Al21  1  0.44328230  0.43258904  0.89617094  1
  Al  Al22  1  0.55596281  0.54057190  0.64451329  1
  Al  Al23  1  0.10191095  0.76367778  0.40095560  1
  Al  Al24  1  0.22513948  0.87142262  0.12181958  1
  Al  Al25  1  0.77215311  0.75722069  0.89370415  1
  Al  Al26  1  0.44561696  0.76086777  0.39121121  1
  Al  Al27  1  0.55659447  0.87141288  0.14761520  1
  Al  Al28  1  0.11679882  0.75718168  0.88660848  1
  Al  Al29  1  0.21349028  0.87677194  0.62890486  1
  Al  Al30  1  0.78087700  0.76531768  0.40050350  1
  Al  Al31  1  0.88826225  0.87500608  0.14379095  1
  Al  Al32  1  0.55697626  0.87347165  0.64636611  1
  B  B33  1  0.88495153  0.20566192  0.64880567  1
  B  B34  1  0.90720949  0.83310158  0.66121408  1
  B  B35  1  0.44265899  0.76140034  0.86558013  1
  N  N36  1  0.22162264  0.20351980  0.33758489  1
  N  N37  1  0.11001162  0.09535577  0.07611118  1
  N  N38  1  0.88684518  0.20764589  0.81493424  1
  N  N39  1  0.78728519  0.11948668  0.59327678  1
  N  N40  1  0.55792159  0.20561687  0.33695112  1
  N  N41  1  0.44591976  0.09285188  0.08663433  1
  N  N42  1  0.22263587  0.20712893  0.83513446  1
  N  N43  1  0.08363350  0.11108558  0.59643905  1
  N  N44  1  0.88862010  0.20744062  0.32995422  1
  N  N45  1  0.78102076  0.09161147  0.07402274  1
  N  N46  1  0.55344071  0.20604878  0.83570821  1
  N  N47  1  0.44633899  0.09516502  0.58841831  1
  N  N48  1  0.21974678  0.54230080  0.33756632  1
  N  N49  1  0.11117546  0.42697340  0.08956921  1
  N  N50  1  0.89039540  0.53705707  0.83634138  1
  N  N51  1  0.78671900  0.41102570  0.59486032  1
  N  N52  1  0.55874625  0.53601515  0.33880005  1
  N  N53  1  0.44561246  0.42729371  0.08656173  1
  N  N54  1  0.22270641  0.53511917  0.83651119  1
  N  N55  1  0.11202849  0.42591736  0.58434120  1
  N  N56  1  0.88551793  0.54199145  0.34030720  1
  N  N57  1  0.77857467  0.42580890  0.08118945  1
  N  N58  1  0.53982888  0.56809267  0.83877535  1
  N  N59  1  0.43984356  0.43371898  0.58772921  1
  N  N60  1  0.21668887  0.87416449  0.36164448  1
  N  N61  1  0.10961701  0.76083352  0.07872649  1
  N  N62  1  0.89027698  0.86383421  0.81519575  1
  N  N63  1  0.79332650  0.77024836  0.59815837  1
  N  N64  1  0.55984297  0.87279381  0.34057317  1
  N  N65  1  0.44843964  0.75920409  0.09692803  1
  N  N66  1  0.24931747  0.85778128  0.83683864  1
  N  N67  1  0.08274543  0.76725948  0.59875784  1
  N  N68  1  0.88554539  0.87819319  0.33492758  1
  N  N69  1  0.77935679  0.76149308  0.08374238  1
  N  N70  1  0.54056871  0.85810863  0.83931597  1
  N  N71  1  0.44826940  0.76121833  0.58302036  1
