# generated using pymatgen
data_Al11BN12
_symmetry_space_group_name_H-M   'P 1'
_cell_length_a   9.30315290
_cell_length_b   9.29503456
_cell_length_c   10.03013702
_cell_angle_alpha   90.03559138
_cell_angle_beta   90.37736555
_cell_angle_gamma   60.01871759
_symmetry_Int_Tables_number   1
_chemical_formula_structural   Al11BN12
_chemical_formula_sum   'Al33 B3 N36'
_cell_volume   751.25792141
_cell_formula_units_Z   3
loop_
 _symmetry_equiv_pos_site_id
 _symmetry_equiv_pos_as_xyz
  1  'x, y, z'
loop_
 _atom_site_type_symbol
 _atom_site_label
 _atom_site_symmetry_multiplicity
 _atom_site_fract_x
 _atom_site_fract_y
 _atom_site_fract_z
 _atom_site_occupancy
  Al  Al0  1  0.10602968  0.09996613  0.39930197  1
  Al  Al1  1  0.21676774  0.20549710  0.14053257  1
  Al  Al2  1  0.78228375  0.09219706  0.87494565  1
  Al  Al3  1  0.45475422  0.08827826  0.32601214  1
  Al  Al4  1  0.55352271  0.20626539  0.06858496  1
  Al  Al5  1  0.10974435  0.09770658  0.87789944  1
  Al  Al6  1  0.20839774  0.21271154  0.64163808  1
  Al  Al7  1  0.79162195  0.08786636  0.39920459  1
  Al  Al8  1  0.88927162  0.20370630  0.13703351  1
  Al  Al9  1  0.44603611  0.08815282  0.82112684  1
  Al  Al10  1  0.55771770  0.20430924  0.57953196  1
  Al  Al11  1  0.11282200  0.42682560  0.38892087  1
  Al  Al12  1  0.21762770  0.54340189  0.13363014  1
  Al  Al13  1  0.77678248  0.42952736  0.87836138  1
  Al  Al14  1  0.88905715  0.53847356  0.63983948  1
  Al  Al15  1  0.45262817  0.42502371  0.32553564  1
  Al  Al16  1  0.54895389  0.54588193  0.06784275  1
  Al  Al17  1  0.10851659  0.42786391  0.89282276  1
  Al  Al18  1  0.20931883  0.54380873  0.63941729  1
  Al  Al19  1  0.78567863  0.41965535  0.39521726  1
  Al  Al20  1  0.88438116  0.54110801  0.13897260  1
  Al  Al21  1  0.44548217  0.43235353  0.82136030  1
  Al  Al22  1  0.55427915  0.53765704  0.58165461  1
  Al  Al23  1  0.10646987  0.76113049  0.39921891  1
  Al  Al24  1  0.23238901  0.86730506  0.06364766  1
  Al  Al25  1  0.77743196  0.75959296  0.87864807  1
  Al  Al26  1  0.44293445  0.76204566  0.32781967  1
  Al  Al27  1  0.54893556  0.87235721  0.06799133  1
  Al  Al28  1  0.10985391  0.75977504  0.87513204  1
  Al  Al29  1  0.21755361  0.87498173  0.59849749  1
  Al  Al30  1  0.78658098  0.76096824  0.39535731  1
  Al  Al31  1  0.88967886  0.87360872  0.13698408  1
  Al  Al32  1  0.55478735  0.87430669  0.58181935  1
  B  B33  1  0.89283605  0.19969612  0.64770307  1
  B  B34  1  0.89280231  0.87403580  0.64788686  1
  B  B35  1  0.44377235  0.76161208  0.81627076  1
  N  N36  1  0.21851184  0.20449670  0.33331681  1
  N  N37  1  0.10861368  0.09772298  0.07173524  1
  N  N38  1  0.88631822  0.20678749  0.80819270  1
  N  N39  1  0.80331485  0.08158802  0.59509840  1
  N  N40  1  0.55732582  0.20519357  0.38749643  1
  N  N41  1  0.45232880  0.08964517  0.13227797  1
  N  N42  1  0.21501028  0.21176356  0.83098203  1
  N  N43  1  0.08159122  0.11180623  0.59460845  1
  N  N44  1  0.89003887  0.20357774  0.32640780  1
  N  N45  1  0.78758920  0.08955265  0.06941127  1
  N  N46  1  0.54770035  0.20929392  0.87745619  1
  N  N47  1  0.44412188  0.09461242  0.63136473  1
  N  N48  1  0.21854896  0.54349987  0.33510410  1
  N  N49  1  0.10981285  0.42731705  0.08191092  1
  N  N50  1  0.88837879  0.53872738  0.82644745  1
  N  N51  1  0.79329945  0.39894381  0.58996345  1
  N  N52  1  0.55302115  0.54256944  0.38935931  1
  N  N53  1  0.45219089  0.42486888  0.13127823  1
  N  N54  1  0.21487531  0.53857382  0.83207259  1
  N  N55  1  0.10790534  0.42833016  0.57686445  1
  N  N56  1  0.88604876  0.54015502  0.33133308  1
  N  N57  1  0.78224493  0.42375980  0.07268514  1
  N  N58  1  0.53673110  0.56790534  0.87394721  1
  N  N59  1  0.44456737  0.42738888  0.63180181  1
  N  N60  1  0.22927243  0.86919283  0.39802236  1
  N  N61  1  0.10811086  0.76129011  0.06990253  1
  N  N62  1  0.88559424  0.87373668  0.80795590  1
  N  N63  1  0.79410283  0.77369894  0.58994147  1
  N  N64  1  0.55379522  0.87068564  0.38964771  1
  N  N65  1  0.44401543  0.76154889  0.13847975  1
  N  N66  1  0.24788796  0.85984993  0.86214756  1
  N  N67  1  0.08241300  0.77313489  0.59577288  1
  N  N68  1  0.89024882  0.87344066  0.32651590  1
  N  N69  1  0.78253963  0.76050924  0.07280926  1
  N  N70  1  0.53725591  0.86172081  0.87398502  1
  N  N71  1  0.44884806  0.75895843  0.65482694  1
