# generated using pymatgen
data_Al11BN12
_symmetry_space_group_name_H-M   'P 1'
_cell_length_a   9.30324889
_cell_length_b   9.32170382
_cell_length_c   10.13634030
_cell_angle_alpha   90.00775999
_cell_angle_beta   90.39494725
_cell_angle_gamma   59.55133643
_symmetry_Int_Tables_number   1
_chemical_formula_structural   Al11BN12
_chemical_formula_sum   'Al33 B3 N36'
_cell_volume   757.78651900
_cell_formula_units_Z   3
loop_
 _symmetry_equiv_pos_site_id
 _symmetry_equiv_pos_as_xyz
  1  'x, y, z'
loop_
 _atom_site_type_symbol
 _atom_site_label
 _atom_site_symmetry_multiplicity
 _atom_site_fract_x
 _atom_site_fract_y
 _atom_site_fract_z
 _atom_site_occupancy
  Al  Al0  1  0.12029249  0.08828979  0.32139779  1
  Al  Al1  1  0.22001433  0.20744788  0.07131450  1
  Al  Al2  1  0.77723430  0.08624198  0.80459635  1
  Al  Al3  1  0.44755603  0.09104315  0.32135320  1
  Al  Al4  1  0.55670852  0.20386098  0.07013621  1
  Al  Al5  1  0.12237365  0.08780388  0.82223376  1
  Al  Al6  1  0.21768076  0.21018991  0.56797987  1
  Al  Al7  1  0.77720820  0.08871894  0.32862344  1
  Al  Al8  1  0.88324580  0.21195644  0.14169919  1
  Al  Al9  1  0.44328538  0.09072408  0.82070672  1
  Al  Al10  1  0.56058395  0.19434834  0.57123250  1
  Al  Al11  1  0.11876278  0.42557709  0.32120340  1
  Al  Al12  1  0.22130675  0.53974958  0.07234838  1
  Al  Al13  1  0.77619576  0.43532120  0.88411022  1
  Al  Al14  1  0.88815456  0.54577145  0.64331789  1
  Al  Al15  1  0.44981418  0.42702906  0.32438880  1
  Al  Al16  1  0.54530236  0.54664169  0.06689940  1
  Al  Al17  1  0.12036008  0.42495896  0.82216283  1
  Al  Al18  1  0.21803030  0.54338726  0.57001412  1
  Al  Al19  1  0.79156159  0.41569249  0.40175373  1
  Al  Al20  1  0.87793391  0.54384122  0.14270028  1
  Al  Al21  1  0.44402522  0.43194192  0.82101963  1
  Al  Al22  1  0.55209019  0.53836571  0.58580229  1
  Al  Al23  1  0.11213868  0.76228670  0.32421286  1
  Al  Al24  1  0.22597071  0.86866075  0.06714283  1
  Al  Al25  1  0.77585492  0.75916985  0.88730974  1
  Al  Al26  1  0.44838358  0.75719683  0.32773272  1
  Al  Al27  1  0.54369481  0.87354394  0.06996562  1
  Al  Al28  1  0.10952260  0.76228349  0.81784835  1
  Al  Al29  1  0.20334431  0.88206276  0.57642048  1
  Al  Al30  1  0.78394588  0.75687995  0.39713276  1
  Al  Al31  1  0.89180340  0.87597751  0.07360977  1
  Al  Al32  1  0.54947714  0.87446959  0.58244898  1
  B  B33  1  0.91052784  0.23676190  0.66241291  1
  B  B34  1  0.88521297  0.87357717  0.57700278  1
  B  B35  1  0.44067333  0.76223526  0.81864288  1
  N  N36  1  0.22326800  0.20501498  0.38122953  1
  N  N37  1  0.11760468  0.08893783  0.12679640  1
  N  N38  1  0.88169872  0.21969552  0.80920868  1
  N  N39  1  0.78071719  0.05114878  0.62375470  1
  N  N40  1  0.55423256  0.20474922  0.38325857  1
  N  N41  1  0.44435382  0.09367474  0.13149826  1
  N  N42  1  0.22138843  0.20630545  0.88411273  1
  N  N43  1  0.09239271  0.11299186  0.63078329  1
  N  N44  1  0.88889380  0.20872602  0.33060202  1
  N  N45  1  0.77359453  0.09144000  0.13507714  1
  N  N46  1  0.55767872  0.20438983  0.88019672  1
  N  N47  1  0.43635151  0.09602498  0.63429238  1
  N  N48  1  0.22512656  0.53862454  0.38246592  1
  N  N49  1  0.11428653  0.42725390  0.13166681  1
  N  N50  1  0.88630226  0.54291246  0.82954296  1
  N  N51  1  0.80119235  0.40278274  0.59374151  1
  N  N52  1  0.55556808  0.53919634  0.39523466  1
  N  N53  1  0.44718758  0.42766880  0.13270084  1
  N  N54  1  0.22236864  0.54088298  0.88331188  1
  N  N55  1  0.11952989  0.42589582  0.63160787  1
  N  N56  1  0.88286239  0.53968844  0.33381208  1
  N  N57  1  0.78104229  0.42472167  0.07171129  1
  N  N58  1  0.53582953  0.56910410  0.87298679  1
  N  N59  1  0.44600852  0.42271129  0.63434283  1
  N  N60  1  0.22473482  0.87090576  0.38910268  1
  N  N61  1  0.11425239  0.76151881  0.13394206  1
  N  N62  1  0.89360795  0.87774302  0.88566266  1
  N  N63  1  0.78969376  0.76490311  0.58858091  1
  N  N64  1  0.54946550  0.87354223  0.38963951  1
  N  N65  1  0.44449416  0.75900398  0.13943286  1
  N  N66  1  0.24300537  0.85992642  0.87318474  1
  N  N67  1  0.08309277  0.77335692  0.62767153  1
  N  N68  1  0.89618347  0.87192411  0.39018123  1
  N  N69  1  0.77584515  0.75944242  0.08053291  1
  N  N70  1  0.53503896  0.86248247  0.87464236  1
  N  N71  1  0.43743561  0.76337400  0.65460372  1
