# generated using pymatgen
data_Al11BN12
_symmetry_space_group_name_H-M   'P 1'
_cell_length_a   9.30090291
_cell_length_b   9.29619511
_cell_length_c   10.11723520
_cell_angle_alpha   90.03422407
_cell_angle_beta   90.41566752
_cell_angle_gamma   59.72056050
_symmetry_Int_Tables_number   1
_chemical_formula_structural   Al11BN12
_chemical_formula_sum   'Al33 B3 N36'
_cell_volume   755.40328325
_cell_formula_units_Z   3
loop_
 _symmetry_equiv_pos_site_id
 _symmetry_equiv_pos_as_xyz
  1  'x, y, z'
loop_
 _atom_site_type_symbol
 _atom_site_label
 _atom_site_symmetry_multiplicity
 _atom_site_fract_x
 _atom_site_fract_y
 _atom_site_fract_z
 _atom_site_occupancy
  Al  Al0  1  0.12086283  0.08861528  0.32157264  1
  Al  Al1  1  0.21922756  0.20709811  0.07087706  1
  Al  Al2  1  0.77707190  0.08588393  0.80452751  1
  Al  Al3  1  0.44709099  0.09184103  0.32152985  1
  Al  Al4  1  0.55669852  0.20300254  0.07123378  1
  Al  Al5  1  0.12121138  0.08782742  0.82118702  1
  Al  Al6  1  0.21738743  0.21007593  0.56915251  1
  Al  Al7  1  0.77737603  0.09002970  0.33195588  1
  Al  Al8  1  0.88314483  0.21033119  0.14211799  1
  Al  Al9  1  0.44253212  0.09107725  0.82114921  1
  Al  Al10  1  0.56128676  0.19732551  0.57122050  1
  Al  Al11  1  0.11828741  0.42572444  0.32134773  1
  Al  Al12  1  0.21969851  0.54023504  0.07272945  1
  Al  Al13  1  0.77655990  0.43224855  0.88351978  1
  Al  Al14  1  0.88657543  0.54484980  0.64337391  1
  Al  Al15  1  0.44907527  0.42813275  0.32390831  1
  Al  Al16  1  0.54510143  0.54613354  0.06642515  1
  Al  Al17  1  0.11902768  0.42517122  0.82205073  1
  Al  Al18  1  0.21776728  0.54372298  0.57005999  1
  Al  Al19  1  0.79121871  0.41609765  0.40224019  1
  Al  Al20  1  0.87706432  0.54348585  0.14233614  1
  Al  Al21  1  0.44301343  0.43217323  0.82154846  1
  Al  Al22  1  0.55298077  0.53794465  0.58578408  1
  Al  Al23  1  0.11275411  0.76315287  0.32656613  1
  Al  Al24  1  0.22488753  0.86820079  0.06726731  1
  Al  Al25  1  0.77454044  0.75819000  0.88514161  1
  Al  Al26  1  0.44956879  0.75744615  0.32690682  1
  Al  Al27  1  0.54314984  0.87336798  0.06950751  1
  Al  Al28  1  0.10900675  0.76267506  0.81566642  1
  Al  Al29  1  0.20876130  0.88059097  0.57622125  1
  Al  Al30  1  0.78420314  0.75695778  0.40081963  1
  Al  Al31  1  0.89080647  0.87543581  0.07138947  1
  Al  Al32  1  0.55071476  0.87492271  0.58342461  1
  B  B33  1  0.90581642  0.22669737  0.65887308  1
  B  B34  1  0.89217694  0.87984841  0.56682626  1
  B  B35  1  0.44079424  0.76191130  0.81871951  1
  N  N36  1  0.22369899  0.20538488  0.38184152  1
  N  N37  1  0.11684665  0.08849951  0.12679664  1
  N  N38  1  0.88228709  0.21634920  0.81039961  1
  N  N39  1  0.78756221  0.06130239  0.61992164  1
  N  N40  1  0.55399628  0.20581207  0.38326604  1
  N  N41  1  0.44309980  0.09367253  0.13144438  1
  N  N42  1  0.22105139  0.20610592  0.88352614  1
  N  N43  1  0.09319057  0.11025923  0.63009237  1
  N  N44  1  0.88993424  0.20884823  0.33102381  1
  N  N45  1  0.77329364  0.08860339  0.13817116  1
  N  N46  1  0.55815905  0.20365953  0.88060316  1
  N  N47  1  0.43826527  0.09719731  0.63437923  1
  N  N48  1  0.22484083  0.53904856  0.38229414  1
  N  N49  1  0.11301608  0.42692304  0.13157460  1
  N  N50  1  0.88586450  0.54105647  0.82995542  1
  N  N51  1  0.79990815  0.39993016  0.59369479  1
  N  N52  1  0.55563085  0.53971788  0.39450678  1
  N  N53  1  0.44586658  0.42772659  0.13226239  1
  N  N54  1  0.22116534  0.54163986  0.88322142  1
  N  N55  1  0.11812163  0.42675971  0.63137903  1
  N  N56  1  0.88279552  0.54115854  0.33437860  1
  N  N57  1  0.78020943  0.42321073  0.07204610  1
  N  N58  1  0.53606004  0.56836428  0.87283274  1
  N  N59  1  0.44461838  0.42424774  0.63459304  1
  N  N60  1  0.22694618  0.87092334  0.38846516  1
  N  N61  1  0.11103756  0.76242613  0.13593574  1
  N  N62  1  0.89280902  0.87660122  0.88333980  1
  N  N63  1  0.78867371  0.76681034  0.59120175  1
  N  N64  1  0.55075983  0.87421128  0.38937369  1
  N  N65  1  0.44360023  0.75876600  0.13873884  1
  N  N66  1  0.24269850  0.85943147  0.87317911  1
  N  N67  1  0.08627069  0.77441567  0.62555998  1
  N  N68  1  0.89862354  0.87453301  0.40209366  1
  N  N69  1  0.77484408  0.75906915  0.07974628  1
  N  N70  1  0.53425004  0.86255909  0.87435208  1
  N  N71  1  0.43916395  0.76302491  0.65461049  1
