# generated using pymatgen
data_Al11BN12
_symmetry_space_group_name_H-M   'P 1'
_cell_length_a   9.30683976
_cell_length_b   9.35525595
_cell_length_c   9.93043377
_cell_angle_alpha   90.35391654
_cell_angle_beta   90.07864937
_cell_angle_gamma   60.09103387
_symmetry_Int_Tables_number   1
_chemical_formula_structural   Al11BN12
_chemical_formula_sum   'Al33 B3 N36'
_cell_volume   749.45452945
_cell_formula_units_Z   3
loop_
 _symmetry_equiv_pos_site_id
 _symmetry_equiv_pos_as_xyz
  1  'x, y, z'
loop_
 _atom_site_type_symbol
 _atom_site_label
 _atom_site_symmetry_multiplicity
 _atom_site_fract_x
 _atom_site_fract_y
 _atom_site_fract_z
 _atom_site_occupancy
  Al  Al0  1  0.10399831  0.09966309  0.39611467  1
  Al  Al1  1  0.22223790  0.20249227  0.13695602  1
  Al  Al2  1  0.78080549  0.09166189  0.87157757  1
  Al  Al3  1  0.44469817  0.09714141  0.39031408  1
  Al  Al4  1  0.55917244  0.20287863  0.13538483  1
  Al  Al5  1  0.10950928  0.09766460  0.87173262  1
  Al  Al6  1  0.21614532  0.20974081  0.63829288  1
  Al  Al7  1  0.78146715  0.09943406  0.39683655  1
  Al  Al8  1  0.88996689  0.20359476  0.13308119  1
  Al  Al9  1  0.44046914  0.09618066  0.88018135  1
  Al  Al10  1  0.56282314  0.20963598  0.63792855  1
  Al  Al11  1  0.11237555  0.42579106  0.38479051  1
  Al  Al12  1  0.22115598  0.54148505  0.13814584  1
  Al  Al13  1  0.77522984  0.42978741  0.87639411  1
  Al  Al14  1  0.89508043  0.53196140  0.63896466  1
  Al  Al15  1  0.44395839  0.42804654  0.38953322  1
  Al  Al16  1  0.55498546  0.54166192  0.09736629  1
  Al  Al17  1  0.11087144  0.42616182  0.89248069  1
  Al  Al18  1  0.21784707  0.53593048  0.63996621  1
  Al  Al19  1  0.78230146  0.42249169  0.39326636  1
  Al  Al20  1  0.88701097  0.53983769  0.13792800  1
  Al  Al21  1  0.44222461  0.43119667  0.88371274  1
  Al  Al22  1  0.55733362  0.53817259  0.61457088  1
  Al  Al23  1  0.10348645  0.76128868  0.39573751  1
  Al  Al24  1  0.23003242  0.86930594  0.06204145  1
  Al  Al25  1  0.77742286  0.75519425  0.87871724  1
  Al  Al26  1  0.44263725  0.76252812  0.32913359  1
  Al  Al27  1  0.55056062  0.86793408  0.06779404  1
  Al  Al28  1  0.11425834  0.75466866  0.87704442  1
  Al  Al29  1  0.21062546  0.87866274  0.59738700  1
  Al  Al30  1  0.78715290  0.76033218  0.39240735  1
  Al  Al31  1  0.88843209  0.87477137  0.13642573  1
  Al  Al32  1  0.55702397  0.87373640  0.58836447  1
  B  B33  1  0.88437450  0.20748655  0.64201643  1
  B  B34  1  0.91074689  0.82641242  0.65616468  1
  B  B35  1  0.44343547  0.76254351  0.81082232  1
  N  N36  1  0.22297488  0.20081427  0.32947866  1
  N  N37  1  0.10828453  0.09850468  0.06811647  1
  N  N38  1  0.88593544  0.20734850  0.80738669  1
  N  N39  1  0.78428167  0.12624706  0.58434612  1
  N  N40  1  0.55797806  0.20444087  0.32875669  1
  N  N41  1  0.44320030  0.09724495  0.07612846  1
  N  N42  1  0.22024084  0.20951199  0.82681983  1
  N  N43  1  0.08068685  0.11500898  0.59270206  1
  N  N44  1  0.89103670  0.20562938  0.32261968  1
  N  N45  1  0.78094016  0.09158967  0.06711138  1
  N  N46  1  0.55531140  0.20637583  0.82795358  1
  N  N47  1  0.44154771  0.10435624  0.58520647  1
  N  N48  1  0.22030289  0.54217160  0.32988067  1
  N  N49  1  0.11145938  0.42673234  0.08293141  1
  N  N50  1  0.89276113  0.53533899  0.82747080  1
  N  N51  1  0.79071452  0.41073942  0.58901950  1
  N  N52  1  0.55771078  0.53937758  0.36292855  1
  N  N53  1  0.44313141  0.42607871  0.07768964  1
  N  N54  1  0.22105484  0.53404207  0.82870772  1
  N  N55  1  0.11159614  0.42609838  0.57475284  1
  N  N56  1  0.88800693  0.53999264  0.33068212  1
  N  N57  1  0.78195868  0.42474785  0.07160121  1
  N  N58  1  0.54158537  0.56387188  0.84830125  1
  N  N59  1  0.43594041  0.43273917  0.58253662  1
  N  N60  1  0.22603268  0.86862412  0.39694884  1
  N  N61  1  0.10844916  0.75989055  0.07182901  1
  N  N62  1  0.89061632  0.86466446  0.80764088  1
  N  N63  1  0.79923129  0.76615877  0.59281331  1
  N  N64  1  0.55795046  0.86602160  0.38903901  1
  N  N65  1  0.44003523  0.76587887  0.13634306  1
  N  N66  1  0.24738369  0.85844515  0.86000897  1
  N  N67  1  0.08185572  0.76554911  0.59500616  1
  N  N68  1  0.88735529  0.87752261  0.32802297  1
  N  N69  1  0.78215512  0.75951399  0.07405416  1
  N  N70  1  0.54033584  0.85796900  0.86644559  1
  N  N71  1  0.44071179  0.76849451  0.64987798  1
