# generated using pymatgen
data_Al11BN12
_symmetry_space_group_name_H-M   'P 1'
_cell_length_a   9.26387794
_cell_length_b   9.32301291
_cell_length_c   10.08295420
_cell_angle_alpha   89.53197408
_cell_angle_beta   90.33821759
_cell_angle_gamma   60.09060630
_symmetry_Int_Tables_number   1
_chemical_formula_structural   Al11BN12
_chemical_formula_sum   'Al33 B3 N36'
_cell_volume   754.77945882
_cell_formula_units_Z   3
loop_
 _symmetry_equiv_pos_site_id
 _symmetry_equiv_pos_as_xyz
  1  'x, y, z'
loop_
 _atom_site_type_symbol
 _atom_site_label
 _atom_site_symmetry_multiplicity
 _atom_site_fract_x
 _atom_site_fract_y
 _atom_site_fract_z
 _atom_site_occupancy
  Al  Al0  1  0.11441000  0.09194243  0.31956642  1
  Al  Al1  1  0.22116446  0.20553178  0.07095366  1
  Al  Al2  1  0.77994372  0.09948616  0.81745382  1
  Al  Al3  1  0.44707728  0.09334447  0.32387770  1
  Al  Al4  1  0.55704835  0.20374488  0.07314595  1
  Al  Al5  1  0.10924187  0.09419195  0.82390710  1
  Al  Al6  1  0.21713710  0.20700392  0.57160184  1
  Al  Al7  1  0.78220993  0.09175366  0.33023345  1
  Al  Al8  1  0.89006245  0.20011328  0.08823232  1
  Al  Al9  1  0.44416310  0.09124236  0.82203752  1
  Al  Al10  1  0.56319628  0.21065672  0.57508364  1
  Al  Al11  1  0.11981791  0.42221539  0.32155961  1
  Al  Al12  1  0.21920019  0.53968995  0.07230515  1
  Al  Al13  1  0.77695937  0.43205345  0.89106035  1
  Al  Al14  1  0.88907678  0.53635011  0.64299885  1
  Al  Al15  1  0.45071144  0.42623109  0.32309127  1
  Al  Al16  1  0.54319233  0.54902382  0.06992778  1
  Al  Al17  1  0.11998118  0.42309439  0.82327675  1
  Al  Al18  1  0.22119855  0.53697787  0.56835177  1
  Al  Al19  1  0.78726215  0.41802306  0.39544276  1
  Al  Al20  1  0.87785687  0.54285372  0.14392945  1
  Al  Al21  1  0.44172227  0.43499657  0.82300642  1
  Al  Al22  1  0.55131461  0.54216761  0.58358596  1
  Al  Al23  1  0.11693882  0.76053544  0.32287314  1
  Al  Al24  1  0.22452104  0.86969360  0.06494692  1
  Al  Al25  1  0.77424246  0.75622449  0.88585361  1
  Al  Al26  1  0.44525454  0.76025723  0.32614494  1
  Al  Al27  1  0.54302821  0.87444998  0.07016351  1
  Al  Al28  1  0.10578001  0.76254215  0.81551874  1
  Al  Al29  1  0.20546038  0.88260569  0.57563373  1
  Al  Al30  1  0.77998322  0.75573505  0.39066949  1
  Al  Al31  1  0.88968588  0.87602936  0.06947531  1
  Al  Al32  1  0.55345617  0.87710697  0.58222391  1
  B  B33  1  0.88425213  0.21274658  0.60773413  1
  B  B34  1  0.92049599  0.82332607  0.55117471  1
  B  B35  1  0.43969705  0.76345347  0.81822577  1
  N  N36  1  0.22451942  0.20328004  0.38367412  1
  N  N37  1  0.11965199  0.08656867  0.12931379  1
  N  N38  1  0.89338039  0.19860955  0.89197072  1
  N  N39  1  0.78393910  0.13262121  0.63315234  1
  N  N40  1  0.55820537  0.20416612  0.38568456  1
  N  N41  1  0.44476779  0.09281675  0.13306813  1
  N  N42  1  0.22270461  0.20399462  0.88206278  1
  N  N43  1  0.08031691  0.11258540  0.63130049  1
  N  N44  1  0.89356445  0.20317186  0.35381481  1
  N  N45  1  0.77641476  0.08691316  0.13914658  1
  N  N46  1  0.55536368  0.20691454  0.88233482  1
  N  N47  1  0.44679110  0.09735881  0.63408767  1
  N  N48  1  0.22544736  0.53739409  0.38067245  1
  N  N49  1  0.11375490  0.42448655  0.13099534  1
  N  N50  1  0.88571591  0.53994388  0.83014003  1
  N  N51  1  0.79474816  0.40583184  0.59147051  1
  N  N52  1  0.55200415  0.54287699  0.39152517  1
  N  N53  1  0.44477013  0.42731449  0.13230582  1
  N  N54  1  0.21892559  0.54292707  0.88291891  1
  N  N55  1  0.11995278  0.42251952  0.63190201  1
  N  N56  1  0.88494208  0.54058888  0.33488504  1
  N  N57  1  0.77344794  0.43225878  0.08317815  1
  N  N58  1  0.53578852  0.56936852  0.87409696  1
  N  N59  1  0.43841735  0.43371414  0.63544812  1
  N  N60  1  0.22471865  0.87204507  0.38819641  1
  N  N61  1  0.11096038  0.76166571  0.13309686  1
  N  N62  1  0.88771832  0.87802711  0.87860061  1
  N  N63  1  0.79921646  0.76099711  0.58644658  1
  N  N64  1  0.54982160  0.87451975  0.38930093  1
  N  N65  1  0.44092233  0.76145662  0.13824584  1
  N  N66  1  0.24122304  0.86005502  0.86884201  1
  N  N67  1  0.08615136  0.76663551  0.62178953  1
  N  N68  1  0.90174433  0.86788754  0.40191405  1
  N  N69  1  0.77522034  0.75904616  0.08198370  1
  N  N70  1  0.53475196  0.86260234  0.87405154  1
  N  N71  1  0.43987421  0.76611600  0.65308341  1
