# generated using pymatgen
data_Al11BN12
_symmetry_space_group_name_H-M   'P 1'
_cell_length_a   9.26936289
_cell_length_b   9.27901901
_cell_length_c   10.15896440
_cell_angle_alpha   89.99521591
_cell_angle_beta   90.43015173
_cell_angle_gamma   59.98355348
_symmetry_Int_Tables_number   1
_chemical_formula_structural   Al11BN12
_chemical_formula_sum   'Al33 B3 N36'
_cell_volume   756.56023902
_cell_formula_units_Z   3
loop_
 _symmetry_equiv_pos_site_id
 _symmetry_equiv_pos_as_xyz
  1  'x, y, z'
loop_
 _atom_site_type_symbol
 _atom_site_label
 _atom_site_symmetry_multiplicity
 _atom_site_fract_x
 _atom_site_fract_y
 _atom_site_fract_z
 _atom_site_occupancy
  Al  Al0  1  0.12089814  0.08801188  0.32091615  1
  Al  Al1  1  0.22090716  0.20699202  0.07122570  1
  Al  Al2  1  0.76858828  0.09901453  0.81574976  1
  Al  Al3  1  0.44858588  0.09000654  0.32361324  1
  Al  Al4  1  0.55484047  0.20594365  0.06974248  1
  Al  Al5  1  0.11843208  0.09011507  0.81921105  1
  Al  Al6  1  0.21556028  0.20743047  0.57037225  1
  Al  Al7  1  0.77488822  0.09592649  0.32717195  1
  Al  Al8  1  0.88563862  0.21265012  0.13753205  1
  Al  Al9  1  0.44082207  0.09143356  0.82059054  1
  Al  Al10  1  0.56384731  0.20156925  0.57256912  1
  Al  Al11  1  0.11738322  0.42459051  0.32275075  1
  Al  Al12  1  0.22088206  0.53873236  0.07123545  1
  Al  Al13  1  0.77634460  0.43241698  0.88315569  1
  Al  Al14  1  0.88441974  0.54102406  0.64219923  1
  Al  Al15  1  0.44855526  0.42813408  0.32356412  1
  Al  Al16  1  0.54525824  0.54733094  0.06703888  1
  Al  Al17  1  0.11699548  0.42478964  0.82058384  1
  Al  Al18  1  0.21554489  0.54355854  0.57033385  1
  Al  Al19  1  0.78960099  0.41609309  0.40283598  1
  Al  Al20  1  0.87718852  0.54475058  0.14298607  1
  Al  Al21  1  0.44081387  0.43444140  0.82060197  1
  Al  Al22  1  0.55203703  0.53871569  0.58432466  1
  Al  Al23  1  0.12093370  0.75770596  0.32088159  1
  Al  Al24  1  0.22730021  0.86969297  0.06565050  1
  Al  Al25  1  0.77634609  0.75780786  0.88314558  1
  Al  Al26  1  0.45134744  0.75770132  0.32701840  1
  Al  Al27  1  0.54528467  0.87414543  0.06703847  1
  Al  Al28  1  0.11852496  0.75802716  0.81928078  1
  Al  Al29  1  0.20847481  0.87906681  0.57580207  1
  Al  Al30  1  0.78968681  0.76095643  0.40283139  1
  Al  Al31  1  0.88562307  0.86845059  0.13757431  1
  Al  Al32  1  0.55212350  0.87599856  0.58435938  1
  B  B33  1  0.89184408  0.20488958  0.65421995  1
  B  B34  1  0.89219028  0.86925788  0.65433904  1
  B  B35  1  0.44161861  0.76255016  0.81882314  1
  N  N36  1  0.22465239  0.20377032  0.38324431  1
  N  N37  1  0.11946227  0.08823325  0.12793732  1
  N  N38  1  0.88274460  0.21517826  0.81730122  1
  N  N39  1  0.79517050  0.08610527  0.62537259  1
  N  N40  1  0.55567854  0.20555597  0.38459920  1
  N  N41  1  0.44586348  0.09264414  0.13305849  1
  N  N42  1  0.22051945  0.20649570  0.88386479  1
  N  N43  1  0.09181128  0.10468318  0.63035800  1
  N  N44  1  0.88974166  0.21036624  0.32784653  1
  N  N45  1  0.77322231  0.09672640  0.12345409  1
  N  N46  1  0.55104346  0.20783107  0.88142160  1
  N  N47  1  0.44146617  0.09815055  0.63461282  1
  N  N48  1  0.22461490  0.53823354  0.38320823  1
  N  N49  1  0.11345472  0.42654653  0.13347733  1
  N  N50  1  0.88401660  0.54130990  0.82746727  1
  N  N51  1  0.79497380  0.39716385  0.59295388  1
  N  N52  1  0.55364010  0.54067046  0.39331373  1
  N  N53  1  0.44584397  0.42817317  0.13303176  1
  N  N54  1  0.22050216  0.53961056  0.88388686  1
  N  N55  1  0.11648257  0.42500763  0.63064980  1
  N  N56  1  0.88124871  0.54274103  0.33656692  1
  N  N57  1  0.78017784  0.42704692  0.07155512  1
  N  N58  1  0.53466492  0.56924169  0.87383074  1
  N  N59  1  0.44132174  0.42723928  0.63462366  1
  N  N60  1  0.22660322  0.87002786  0.38806142  1
  N  N61  1  0.11945520  0.75890630  0.12790307  1
  N  N62  1  0.88272912  0.86868841  0.81711952  1
  N  N63  1  0.79515290  0.77442341  0.59296628  1
  N  N64  1  0.55372285  0.87240364  0.39335971  1
  N  N65  1  0.44666480  0.76002241  0.13913443  1
  N  N66  1  0.24323827  0.86172525  0.87408734  1
  N  N67  1  0.09188233  0.76994337  0.63039968  1
  N  N68  1  0.88976766  0.86667667  0.32787622  1
  N  N69  1  0.78022354  0.75944031  0.07153548  1
  N  N70  1  0.53468612  0.86280617  0.87381631  1
  N  N71  1  0.44082609  0.76296329  0.65481681  1
