# generated using pymatgen
data_Al11BN12
_symmetry_space_group_name_H-M   'P 1'
_cell_length_a   9.31108322
_cell_length_b   9.29485437
_cell_length_c   9.91897951
_cell_angle_alpha   90.23948863
_cell_angle_beta   90.28383228
_cell_angle_gamma   59.84625640
_symmetry_Int_Tables_number   1
_chemical_formula_structural   Al11BN12
_chemical_formula_sum   'Al33 B3 N36'
_cell_volume   742.26564126
_cell_formula_units_Z   3
loop_
 _symmetry_equiv_pos_site_id
 _symmetry_equiv_pos_as_xyz
  1  'x, y, z'
loop_
 _atom_site_type_symbol
 _atom_site_label
 _atom_site_symmetry_multiplicity
 _atom_site_fract_x
 _atom_site_fract_y
 _atom_site_fract_z
 _atom_site_occupancy
  Al  Al0  1  0.11181327  0.09250986  0.31699111  1
  Al  Al1  1  0.21912130  0.20636728  0.06306710  1
  Al  Al2  1  0.78267837  0.09188882  0.80228104  1
  Al  Al3  1  0.44856904  0.08966308  0.31122391  1
  Al  Al4  1  0.55897955  0.20292305  0.06280997  1
  Al  Al5  1  0.10862436  0.09487291  0.80836116  1
  Al  Al6  1  0.21751098  0.20614630  0.55977095  1
  Al  Al7  1  0.78107534  0.09373306  0.32299985  1
  Al  Al8  1  0.88756485  0.20509178  0.06475550  1
  Al  Al9  1  0.44021283  0.09320221  0.81273443  1
  Al  Al10  1  0.56100072  0.20197573  0.56226904  1
  Al  Al11  1  0.12042518  0.42357585  0.31630826  1
  Al  Al12  1  0.22005915  0.54077789  0.06205791  1
  Al  Al13  1  0.77204744  0.42300040  0.80852120  1
  Al  Al14  1  0.88925266  0.53693267  0.61704463  1
  Al  Al15  1  0.44660014  0.42775051  0.31087573  1
  Al  Al16  1  0.55467845  0.54300144  0.05886235  1
  Al  Al17  1  0.11508546  0.42575322  0.81088267  1
  Al  Al18  1  0.21799528  0.54369445  0.56016458  1
  Al  Al19  1  0.77611841  0.42281869  0.32617664  1
  Al  Al20  1  0.88174327  0.54787322  0.13319997  1
  Al  Al21  1  0.44185758  0.43291405  0.81278640  1
  Al  Al22  1  0.55637788  0.53404308  0.56767358  1
  Al  Al23  1  0.11339806  0.76298051  0.31529891  1
  Al  Al24  1  0.22505251  0.87053534  0.05793863  1
  Al  Al25  1  0.77322725  0.76183996  0.84399804  1
  Al  Al26  1  0.44696142  0.76074338  0.31429057  1
  Al  Al27  1  0.54879067  0.87054223  0.05610375  1
  Al  Al28  1  0.10978399  0.76353168  0.80698734  1
  Al  Al29  1  0.21415711  0.87705251  0.56677212  1
  Al  Al30  1  0.78339522  0.76150793  0.39132294  1
  Al  Al31  1  0.88859884  0.87485061  0.06114554  1
  Al  Al32  1  0.54987625  0.87581656  0.57584997  1
  B  B33  1  0.89423449  0.19949416  0.55573784  1
  B  B34  1  0.90093244  0.88307904  0.55623087  1
  B  B35  1  0.44180510  0.76217523  0.80680535  1
  N  N36  1  0.22592870  0.20189162  0.37011334  1
  N  N37  1  0.11017723  0.09299080  0.12354475  1
  N  N38  1  0.88731461  0.20389897  0.87447854  1
  N  N39  1  0.80177795  0.08189342  0.60748797  1
  N  N40  1  0.55570516  0.20506797  0.37140520  1
  N  N41  1  0.44464523  0.09274751  0.11830483  1
  N  N42  1  0.21872946  0.20588868  0.87142317  1
  N  N43  1  0.08613685  0.10801936  0.61474721  1
  N  N44  1  0.89318345  0.20252963  0.39296776  1
  N  N45  1  0.77979923  0.09319713  0.13036265  1
  N  N46  1  0.55895140  0.20320808  0.86831962  1
  N  N47  1  0.44032257  0.09877270  0.62332193  1
  N  N48  1  0.22532849  0.53996928  0.37041653  1
  N  N49  1  0.11390520  0.42714019  0.12233314  1
  N  N50  1  0.88513591  0.53773496  0.81770020  1
  N  N51  1  0.78740515  0.39468289  0.61205610  1
  N  N52  1  0.55333650  0.54064006  0.37726842  1
  N  N53  1  0.44529321  0.42852784  0.11791343  1
  N  N54  1  0.21940870  0.54202795  0.87025333  1
  N  N55  1  0.11875920  0.42475771  0.61655171  1
  N  N56  1  0.88987660  0.54108972  0.34091299  1
  N  N57  1  0.77327664  0.42433706  0.12825231  1
  N  N58  1  0.54348419  0.56273167  0.86354175  1
  N  N59  1  0.44186606  0.42751442  0.62242088  1
  N  N60  1  0.22692483  0.87059142  0.37638035  1
  N  N61  1  0.11014839  0.76385188  0.12281635  1
  N  N62  1  0.89053180  0.87648061  0.86929787  1
  N  N63  1  0.78706036  0.77565022  0.59443083  1
  N  N64  1  0.55251623  0.87256268  0.38061690  1
  N  N65  1  0.44307444  0.76137664  0.12454382  1
  N  N66  1  0.24350949  0.86137628  0.86052181  1
  N  N67  1  0.08711557  0.77514122  0.61448402  1
  N  N68  1  0.89900287  0.87664307  0.39389733  1
  N  N69  1  0.77415476  0.76306778  0.08058071  1
  N  N70  1  0.53619618  0.86224263  0.85918671  1
  N  N71  1  0.44217558  0.75921462  0.64212900  1
