# generated using pymatgen
data_Al11BN12
_symmetry_space_group_name_H-M   'P 1'
_cell_length_a   9.28939999
_cell_length_b   9.30696288
_cell_length_c   10.15714674
_cell_angle_alpha   90.03473546
_cell_angle_beta   90.41488106
_cell_angle_gamma   59.73154330
_symmetry_Int_Tables_number   1
_chemical_formula_structural   Al11BN12
_chemical_formula_sum   'Al33 B3 N36'
_cell_volume   758.40768140
_cell_formula_units_Z   3
loop_
 _symmetry_equiv_pos_site_id
 _symmetry_equiv_pos_as_xyz
  1  'x, y, z'
loop_
 _atom_site_type_symbol
 _atom_site_label
 _atom_site_symmetry_multiplicity
 _atom_site_fract_x
 _atom_site_fract_y
 _atom_site_fract_z
 _atom_site_occupancy
  Al  Al0  1  0.12083217  0.08847333  0.32086249  1
  Al  Al1  1  0.22092445  0.20723610  0.07156262  1
  Al  Al2  1  0.76902275  0.09847129  0.80817111  1
  Al  Al3  1  0.44848036  0.08987130  0.32251339  1
  Al  Al4  1  0.55590710  0.20518191  0.06929159  1
  Al  Al5  1  0.12054926  0.08906524  0.82111799  1
  Al  Al6  1  0.21711112  0.20896718  0.56933376  1
  Al  Al7  1  0.77488723  0.09511225  0.32928134  1
  Al  Al8  1  0.88471802  0.21247778  0.13894245  1
  Al  Al9  1  0.44195229  0.09091171  0.82067003  1
  Al  Al10  1  0.56249419  0.19714670  0.57138549  1
  Al  Al11  1  0.11773379  0.42539011  0.32231556  1
  Al  Al12  1  0.22113429  0.53908243  0.07123492  1
  Al  Al13  1  0.77582880  0.43428263  0.88414040  1
  Al  Al14  1  0.88615182  0.54327210  0.64310889  1
  Al  Al15  1  0.44891686  0.42783619  0.32366293  1
  Al  Al16  1  0.54482268  0.54719758  0.06725200  1
  Al  Al17  1  0.11828233  0.42471873  0.82135406  1
  Al  Al18  1  0.21677404  0.54394331  0.57065863  1
  Al  Al19  1  0.79060517  0.41642551  0.40207801  1
  Al  Al20  1  0.87737430  0.54456975  0.14276664  1
  Al  Al21  1  0.44190600  0.43333901  0.82057873  1
  Al  Al22  1  0.55201682  0.53821408  0.58509375  1
  Al  Al23  1  0.12014466  0.75820074  0.32174661  1
  Al  Al24  1  0.22657004  0.86958301  0.06614595  1
  Al  Al25  1  0.77682301  0.75823992  0.88403236  1
  Al  Al26  1  0.45094525  0.75759515  0.32762669  1
  Al  Al27  1  0.54479520  0.87368967  0.06720409  1
  Al  Al28  1  0.11731771  0.75807541  0.81833632  1
  Al  Al29  1  0.20570160  0.88079978  0.57628638  1
  Al  Al30  1  0.78887825  0.76047060  0.40272122  1
  Al  Al31  1  0.88508443  0.86846072  0.13774472  1
  Al  Al32  1  0.55096168  0.87489890  0.58420383  1
  B  B33  1  0.90244765  0.22255497  0.65840346  1
  B  B34  1  0.88529644  0.87180766  0.65214572  1
  B  B35  1  0.44133949  0.76238525  0.81878194  1
  N  N36  1  0.22412177  0.20444718  0.38239101  1
  N  N37  1  0.11898112  0.08890843  0.12762287  1
  N  N38  1  0.88206168  0.21820240  0.81289996  1
  N  N39  1  0.78796747  0.06876058  0.62195958  1
  N  N40  1  0.55395301  0.20576387  0.38352211  1
  N  N41  1  0.44605949  0.09253459  0.13224247  1
  N  N42  1  0.22099078  0.20638034  0.88433795  1
  N  N43  1  0.09251281  0.10929492  0.63105481  1
  N  N44  1  0.88950579  0.20983394  0.32907619  1
  N  N45  1  0.77321299  0.09677719  0.12543680  1
  N  N46  1  0.55304192  0.20688839  0.88075545  1
  N  N47  1  0.43908907  0.09687232  0.63463903  1
  N  N48  1  0.22488137  0.53838731  0.38329838  1
  N  N49  1  0.11380833  0.42709437  0.13304508  1
  N  N50  1  0.88490814  0.54101921  0.82843208  1
  N  N51  1  0.79869584  0.39895091  0.59315752  1
  N  N52  1  0.55452342  0.53995386  0.39438901  1
  N  N53  1  0.44629104  0.42805603  0.13288639  1
  N  N54  1  0.22144153  0.53942911  0.88377551  1
  N  N55  1  0.11799302  0.42564914  0.63116497  1
  N  N56  1  0.88141680  0.54234668  0.33591268  1
  N  N57  1  0.78037389  0.42657259  0.07189993  1
  N  N58  1  0.53472974  0.56915205  0.87365601  1
  N  N59  1  0.44425067  0.42429910  0.63438692  1
  N  N60  1  0.22558911  0.87095207  0.38859879  1
  N  N61  1  0.11937239  0.75912823  0.12855962  1
  N  N62  1  0.88310777  0.86804330  0.81950225  1
  N  N63  1  0.79353738  0.77059635  0.59281827  1
  N  N64  1  0.55264589  0.87259191  0.39290342  1
  N  N65  1  0.44624448  0.75987637  0.13947819  1
  N  N66  1  0.24255779  0.86147338  0.87415795  1
  N  N67  1  0.09129333  0.77034361  0.62973450  1
  N  N68  1  0.88908896  0.86571869  0.32825087  1
  N  N69  1  0.77966278  0.75937677  0.07243037  1
  N  N70  1  0.53454470  0.86221412  0.87390729  1
  N  N71  1  0.43941428  0.76283674  0.65492217  1
