# generated using pymatgen
data_Al11BN12
_symmetry_space_group_name_H-M   'P 1'
_cell_length_a   9.28881845
_cell_length_b   9.34374558
_cell_length_c   9.95550581
_cell_angle_alpha   90.28851310
_cell_angle_beta   89.86737088
_cell_angle_gamma   60.08691982
_symmetry_Int_Tables_number   1
_chemical_formula_structural   Al11BN12
_chemical_formula_sum   'Al33 B3 N36'
_cell_volume   748.93291751
_cell_formula_units_Z   3
loop_
 _symmetry_equiv_pos_site_id
 _symmetry_equiv_pos_as_xyz
  1  'x, y, z'
loop_
 _atom_site_type_symbol
 _atom_site_label
 _atom_site_symmetry_multiplicity
 _atom_site_fract_x
 _atom_site_fract_y
 _atom_site_fract_z
 _atom_site_occupancy
  Al  Al0  1  0.10284522  0.10084758  0.39497444  1
  Al  Al1  1  0.22171329  0.20222859  0.13683871  1
  Al  Al2  1  0.78053160  0.09216807  0.87087271  1
  Al  Al3  1  0.44559512  0.09491347  0.39177753  1
  Al  Al4  1  0.55926987  0.20244415  0.13536294  1
  Al  Al5  1  0.10906532  0.09830647  0.87134687  1
  Al  Al6  1  0.21581676  0.21013143  0.63819933  1
  Al  Al7  1  0.78117597  0.09882733  0.39639019  1
  Al  Al8  1  0.89088554  0.20236040  0.13259212  1
  Al  Al9  1  0.44156926  0.09526449  0.88018951  1
  Al  Al10  1  0.56188712  0.21199811  0.63738351  1
  Al  Al11  1  0.11182462  0.42582752  0.38510306  1
  Al  Al12  1  0.22146203  0.54114967  0.13762319  1
  Al  Al13  1  0.77248795  0.43158024  0.88200812  1
  Al  Al14  1  0.89386369  0.53184304  0.63913372  1
  Al  Al15  1  0.44463209  0.42768604  0.38828973  1
  Al  Al16  1  0.56026826  0.53150328  0.13969602  1
  Al  Al17  1  0.11150568  0.42619950  0.89150397  1
  Al  Al18  1  0.21977612  0.53576996  0.63934954  1
  Al  Al19  1  0.77966065  0.42361234  0.39276360  1
  Al  Al20  1  0.88755330  0.53870041  0.13831545  1
  Al  Al21  1  0.44479114  0.43308577  0.88855501  1
  Al  Al22  1  0.55802010  0.53524429  0.63983183  1
  Al  Al23  1  0.10220960  0.76045122  0.39499081  1
  Al  Al24  1  0.23353918  0.86685529  0.05941032  1
  Al  Al25  1  0.77639183  0.75546797  0.87900875  1
  Al  Al26  1  0.43964380  0.76644173  0.32927218  1
  Al  Al27  1  0.55399638  0.86892922  0.08552228  1
  Al  Al28  1  0.11485295  0.75433745  0.87617444  1
  Al  Al29  1  0.20816695  0.87982837  0.59336717  1
  Al  Al30  1  0.78449243  0.76139546  0.39441765  1
  Al  Al31  1  0.88979050  0.87430437  0.13618795  1
  Al  Al32  1  0.55834661  0.87655478  0.61169271  1
  B  B33  1  0.88358809  0.20751776  0.64101738  1
  B  B34  1  0.91101280  0.82569498  0.65619030  1
  B  B35  1  0.44008115  0.76570859  0.80485209  1
  N  N36  1  0.22314669  0.20080034  0.32905184  1
  N  N37  1  0.10907715  0.09735248  0.06701723  1
  N  N38  1  0.88490533  0.20928991  0.80679879  1
  N  N39  1  0.78403677  0.12661155  0.58376027  1
  N  N40  1  0.55777639  0.20367447  0.32841945  1
  N  N41  1  0.44359829  0.09622457  0.07480867  1
  N  N42  1  0.22092106  0.20914930  0.82628070  1
  N  N43  1  0.07906500  0.11672035  0.59133968  1
  N  N44  1  0.89032318  0.20572293  0.32194845  1
  N  N45  1  0.78121091  0.09086704  0.06638555  1
  N  N46  1  0.55463026  0.20835626  0.82769133  1
  N  N47  1  0.44192560  0.10507023  0.58468233  1
  N  N48  1  0.22031400  0.54170248  0.32921270  1
  N  N49  1  0.11196038  0.42619943  0.08194831  1
  N  N50  1  0.89219586  0.53474269  0.82799580  1
  N  N51  1  0.78514148  0.41565345  0.58538719  1
  N  N52  1  0.55995795  0.53265138  0.33301174  1
  N  N53  1  0.44510926  0.42670026  0.07927180  1
  N  N54  1  0.22393966  0.53320956  0.82819243  1
  N  N55  1  0.11165270  0.42668900  0.57500146  1
  N  N56  1  0.88728153  0.54031744  0.33088796  1
  N  N57  1  0.77905854  0.42562687  0.07387820  1
  N  N58  1  0.54442528  0.55970229  0.83222312  1
  N  N59  1  0.43837739  0.43585196  0.57841636  1
  N  N60  1  0.22365599  0.86906880  0.39553137  1
  N  N61  1  0.10929035  0.75926793  0.07038149  1
  N  N62  1  0.89093312  0.86443129  0.80728860  1
  N  N63  1  0.79894078  0.76652007  0.59297010  1
  N  N64  1  0.55819966  0.86694181  0.37998903  1
  N  N65  1  0.44037233  0.76480424  0.13502643  1
  N  N66  1  0.24913152  0.85809334  0.85932045  1
  N  N67  1  0.08150247  0.76534220  0.59421716  1
  N  N68  1  0.88681468  0.87690806  0.32747770  1
  N  N69  1  0.78292177  0.75879369  0.07295471  1
  N  N70  1  0.54342010  0.86083157  0.84683382  1
  N  N71  1  0.43511587  0.77014852  0.64387892  1
