# generated using pymatgen
data_Al11BN12
_symmetry_space_group_name_H-M   'P 1'
_cell_length_a   9.26707953
_cell_length_b   9.33061619
_cell_length_c   9.98974158
_cell_angle_alpha   90.24043662
_cell_angle_beta   89.74412552
_cell_angle_gamma   60.04578814
_symmetry_Int_Tables_number   1
_chemical_formula_structural   Al11BN12
_chemical_formula_sum   'Al33 B3 N36'
_cell_volume   748.37973517
_cell_formula_units_Z   3
loop_
 _symmetry_equiv_pos_site_id
 _symmetry_equiv_pos_as_xyz
  1  'x, y, z'
loop_
 _atom_site_type_symbol
 _atom_site_label
 _atom_site_symmetry_multiplicity
 _atom_site_fract_x
 _atom_site_fract_y
 _atom_site_fract_z
 _atom_site_occupancy
  Al  Al0  1  0.10279304  0.10181651  0.39625746  1
  Al  Al1  1  0.22162015  0.20258121  0.13733313  1
  Al  Al2  1  0.77988256  0.09162660  0.87120682  1
  Al  Al3  1  0.44610355  0.09520114  0.38959845  1
  Al  Al4  1  0.55957996  0.20379288  0.13569456  1
  Al  Al5  1  0.10891237  0.09879200  0.87071622  1
  Al  Al6  1  0.21777049  0.20840396  0.63842828  1
  Al  Al7  1  0.78155227  0.09935885  0.39650333  1
  Al  Al8  1  0.89211189  0.20195661  0.13248180  1
  Al  Al9  1  0.44330570  0.09020910  0.88838821  1
  Al  Al10  1  0.56178143  0.20901646  0.63730638  1
  Al  Al11  1  0.11122399  0.42690100  0.38610868  1
  Al  Al12  1  0.22168204  0.54196411  0.13741779  1
  Al  Al13  1  0.77208037  0.43180992  0.88259922  1
  Al  Al14  1  0.89244494  0.53296463  0.64015714  1
  Al  Al15  1  0.44451356  0.42783724  0.38890767  1
  Al  Al16  1  0.56036542  0.53240432  0.13905443  1
  Al  Al17  1  0.11125457  0.42606595  0.89153059  1
  Al  Al18  1  0.21894814  0.53594806  0.64006324  1
  Al  Al19  1  0.78044673  0.42335283  0.39326691  1
  Al  Al20  1  0.88778378  0.53900373  0.13909764  1
  Al  Al21  1  0.44449126  0.43205036  0.88816835  1
  Al  Al22  1  0.55845921  0.53301831  0.63889477  1
  Al  Al23  1  0.10190288  0.76092288  0.39600439  1
  Al  Al24  1  0.23766928  0.86588432  0.05605884  1
  Al  Al25  1  0.77097818  0.75745848  0.88713569  1
  Al  Al26  1  0.43606777  0.76482766  0.32789958  1
  Al  Al27  1  0.56050363  0.87481288  0.14092497  1
  Al  Al28  1  0.11322830  0.75467213  0.87558076  1
  Al  Al29  1  0.20778822  0.87962060  0.59412244  1
  Al  Al30  1  0.78208025  0.76434227  0.39356438  1
  Al  Al31  1  0.89201611  0.87441337  0.13628219  1
  Al  Al32  1  0.55957025  0.87863168  0.64182292  1
  B  B33  1  0.88355292  0.20773558  0.64116271  1
  B  B34  1  0.90734030  0.82812155  0.65540434  1
  B  B35  1  0.43965805  0.76334668  0.80227291  1
  N  N36  1  0.22222930  0.20220287  0.32940145  1
  N  N37  1  0.11030141  0.09702509  0.06567812  1
  N  N38  1  0.88418200  0.20933241  0.80670396  1
  N  N39  1  0.78475262  0.12459997  0.58400125  1
  N  N40  1  0.55827849  0.20515946  0.32838902  1
  N  N41  1  0.44589071  0.09329793  0.07904173  1
  N  N42  1  0.22352428  0.20776903  0.82654189  1
  N  N43  1  0.07937182  0.11661618  0.59204606  1
  N  N44  1  0.89104384  0.20588767  0.32179140  1
  N  N45  1  0.78178487  0.09116651  0.06628089  1
  N  N46  1  0.55331776  0.20604386  0.82774886  1
  N  N47  1  0.44539645  0.09693383  0.57967875  1
  N  N48  1  0.22024373  0.54249846  0.32901447  1
  N  N49  1  0.11234063  0.42648861  0.08175478  1
  N  N50  1  0.89040265  0.53695612  0.82908344  1
  N  N51  1  0.78624670  0.41365013  0.58558486  1
  N  N52  1  0.56048134  0.53271945  0.33392581  1
  N  N53  1  0.44563775  0.42686080  0.07851584  1
  N  N54  1  0.22355385  0.53327554  0.82792515  1
  N  N55  1  0.11154664  0.42615167  0.57577658  1
  N  N56  1  0.88644985  0.54163123  0.33183933  1
  N  N57  1  0.77989250  0.42532381  0.07395332  1
  N  N58  1  0.54395285  0.55957078  0.83080992  1
  N  N59  1  0.43822557  0.43344824  0.57853816  1
  N  N60  1  0.22332873  0.87007879  0.39736460  1
  N  N61  1  0.11058396  0.75969178  0.06880386  1
  N  N62  1  0.88819671  0.86365230  0.80720170  1
  N  N63  1  0.79341313  0.76904566  0.58982455  1
  N  N64  1  0.56132055  0.87335282  0.33713111  1
  N  N65  1  0.44066719  0.76348227  0.13395862  1
  N  N66  1  0.24919802  0.85794116  0.85628327  1
  N  N67  1  0.07966019  0.76553826  0.59426318  1
  N  N68  1  0.88770079  0.87779189  0.32743844  1
  N  N69  1  0.78081772  0.76085390  0.07703695  1
  N  N70  1  0.54497880  0.86272038  0.83246862  1
  N  N71  1  0.43615162  0.76713276  0.63893718  1
