# generated using pymatgen
data_Al11BN12
_symmetry_space_group_name_H-M   'P 1'
_cell_length_a   9.25908432
_cell_length_b   9.25658274
_cell_length_c   9.89721913
_cell_angle_alpha   89.99997079
_cell_angle_beta   89.91027972
_cell_angle_gamma   60.00901590
_symmetry_Int_Tables_number   1
_chemical_formula_structural   Al11BN12
_chemical_formula_sum   'Al33 B3 N36'
_cell_volume   734.68518597
_cell_formula_units_Z   3
loop_
 _symmetry_equiv_pos_site_id
 _symmetry_equiv_pos_as_xyz
  1  'x, y, z'
loop_
 _atom_site_type_symbol
 _atom_site_label
 _atom_site_symmetry_multiplicity
 _atom_site_fract_x
 _atom_site_fract_y
 _atom_site_fract_z
 _atom_site_occupancy
  Al  Al0  1  0.10555425  0.09562681  0.40709155  1
  Al  Al1  1  0.22091784  0.20489822  0.15374539  1
  Al  Al2  1  0.78032061  0.09317396  0.89067267  1
  Al  Al3  1  0.44475671  0.09284494  0.40281541  1
  Al  Al4  1  0.55853396  0.20406703  0.15250253  1
  Al  Al5  1  0.11488992  0.09116446  0.89824574  1
  Al  Al6  1  0.21625658  0.20758785  0.65364494  1
  Al  Al7  1  0.78272435  0.09197185  0.41184486  1
  Al  Al8  1  0.88813494  0.20464960  0.15111161  1
  Al  Al9  1  0.44268577  0.09141827  0.90345988  1
  Al  Al10  1  0.56138316  0.20264223  0.65286759  1
  Al  Al11  1  0.10977195  0.42844764  0.40279324  1
  Al  Al12  1  0.22091778  0.54085162  0.15374524  1
  Al  Al13  1  0.77559832  0.43025300  0.89645377  1
  Al  Al14  1  0.89008318  0.53829190  0.65247356  1
  Al  Al15  1  0.44475650  0.42906648  0.40281555  1
  Al  Al16  1  0.55576161  0.54051487  0.14601107  1
  Al  Al17  1  0.11058042  0.42804385  0.90466732  1
  Al  Al18  1  0.21625625  0.54282400  0.65364506  1
  Al  Al19  1  0.77761380  0.42328855  0.40723868  1
  Al  Al20  1  0.88649747  0.54008491  0.15331723  1
  Al  Al21  1  0.44268556  0.43256464  0.90345960  1
  Al  Al22  1  0.55546364  0.53926673  0.65774922  1
  Al  Al23  1  0.10555420  0.76548598  0.40709169  1
  Al  Al24  1  0.22307734  0.87179489  0.14646837  1
  Al  Al25  1  0.77559820  0.76081709  0.89645377  1
  Al  Al26  1  0.44448515  0.76109157  0.40119070  1
  Al  Al27  1  0.55576183  0.87039065  0.14601101  1
  Al  Al28  1  0.11488980  0.76061439  0.89824564  1
  Al  Al29  1  0.21823032  0.87421910  0.65764337  1
  Al  Al30  1  0.77761418  0.76576483  0.40723884  1
  Al  Al31  1  0.88813467  0.87388371  0.15111167  1
  Al  Al32  1  0.55546370  0.87193671  0.65774937  1
  B  B33  1  0.89455894  0.19714108  0.66007007  1
  B  B34  1  0.89455899  0.87496776  0.66007018  1
  B  B35  1  0.44457760  0.76104534  0.90589120  1
  N  N36  1  0.22044163  0.20419033  0.34628611  1
  N  N37  1  0.10934831  0.09537040  0.08974774  1
  N  N38  1  0.89122945  0.20444533  0.82302669  1
  N  N39  1  0.80021495  0.08322644  0.60772517  1
  N  N40  1  0.55913772  0.20376539  0.34717086  1
  N  N41  1  0.44380297  0.09540096  0.09468559  1
  N  N42  1  0.22180638  0.20678998  0.84380153  1
  N  N43  1  0.08674553  0.10466592  0.60306149  1
  N  N44  1  0.88739206  0.20465868  0.34166137  1
  N  N45  1  0.77945234  0.09360787  0.08447895  1
  N  N46  1  0.55404301  0.20631276  0.84339551  1
  N  N47  1  0.44295510  0.09379927  0.59535251  1
  N  N48  1  0.22044158  0.54203564  0.34628599  1
  N  N49  1  0.11017305  0.42824718  0.09652714  1
  N  N50  1  0.89018997  0.53823923  0.84204569  1
  N  N51  1  0.78678652  0.40303450  0.60262928  1
  N  N52  1  0.55642292  0.53964424  0.34000554  1
  N  N53  1  0.44380262  0.42746376  0.09468537  1
  N  N54  1  0.22180607  0.53807237  0.84380190  1
  N  N55  1  0.11042034  0.42812375  0.59274825  1
  N  N56  1  0.88479054  0.54093841  0.34785024  1
  N  N57  1  0.77947237  0.42562860  0.08874846  1
  N  N58  1  0.54278197  0.56380674  0.85083256  1
  N  N59  1  0.44295483  0.42991305  0.59535257  1
  N  N60  1  0.22138578  0.87264079  0.34240243  1
  N  N61  1  0.10934801  0.76194883  0.08974771  1
  N  N62  1  0.89122927  0.87099389  0.82302675  1
  N  N63  1  0.78678656  0.77684602  0.60262941  1
  N  N64  1  0.55642316  0.87060090  0.34000567  1
  N  N65  1  0.44411318  0.76127701  0.07290801  1
  N  N66  1  0.24797517  0.85934679  0.84984297  1
  N  N67  1  0.08674540  0.77525669  0.60306144  1
  N  N68  1  0.88739196  0.87461734  0.34166148  1
  N  N69  1  0.77947250  0.76156635  0.08874864  1
  N  N70  1  0.54278177  0.86007974  0.85083279  1
  N  N71  1  0.44392544  0.76137090  0.59111827  1
