# generated using pymatgen
data_Al11BN12
_symmetry_space_group_name_H-M   'P 1'
_cell_length_a   9.31451980
_cell_length_b   9.32400981
_cell_length_c   10.00825479
_cell_angle_alpha   90.08202656
_cell_angle_beta   90.21132797
_cell_angle_gamma   60.07865236
_symmetry_Int_Tables_number   1
_chemical_formula_structural   Al11BN12
_chemical_formula_sum   'Al33 B3 N36'
_cell_volume   753.34312789
_cell_formula_units_Z   3
loop_
 _symmetry_equiv_pos_site_id
 _symmetry_equiv_pos_as_xyz
  1  'x, y, z'
loop_
 _atom_site_type_symbol
 _atom_site_label
 _atom_site_symmetry_multiplicity
 _atom_site_fract_x
 _atom_site_fract_y
 _atom_site_fract_z
 _atom_site_occupancy
  Al  Al0  1  0.10444653  0.09938098  0.39878992  1
  Al  Al1  1  0.21527689  0.20601468  0.13847793  1
  Al  Al2  1  0.78179633  0.09171123  0.87753638  1
  Al  Al3  1  0.45041115  0.08547737  0.32777192  1
  Al  Al4  1  0.56527494  0.20071236  0.13223205  1
  Al  Al5  1  0.10986337  0.09731059  0.87587775  1
  Al  Al6  1  0.20923369  0.21276664  0.63931218  1
  Al  Al7  1  0.78460399  0.09357297  0.39919612  1
  Al  Al8  1  0.88940816  0.20456790  0.13613928  1
  Al  Al9  1  0.44501789  0.08621145  0.82245480  1
  Al  Al10  1  0.56923883  0.20119288  0.63552955  1
  Al  Al11  1  0.11221376  0.42686395  0.38786901  1
  Al  Al12  1  0.21508419  0.54505819  0.13829016  1
  Al  Al13  1  0.77830392  0.42811873  0.87701165  1
  Al  Al14  1  0.89066253  0.53634860  0.63985259  1
  Al  Al15  1  0.44979363  0.43125779  0.32706096  1
  Al  Al16  1  0.54810023  0.54685986  0.06577190  1
  Al  Al17  1  0.11006090  0.42746520  0.89412803  1
  Al  Al18  1  0.20979961  0.54260234  0.64014495  1
  Al  Al19  1  0.78649172  0.41972793  0.39472340  1
  Al  Al20  1  0.88312167  0.54142309  0.13829057  1
  Al  Al21  1  0.44464264  0.43630886  0.82328260  1
  Al  Al22  1  0.55404041  0.53938548  0.58059535  1
  Al  Al23  1  0.10422241  0.76229967  0.39858426  1
  Al  Al24  1  0.23158796  0.86789735  0.06388098  1
  Al  Al25  1  0.77815875  0.75781173  0.87885058  1
  Al  Al26  1  0.44285237  0.76190837  0.32690602  1
  Al  Al27  1  0.54787236  0.87216855  0.06592937  1
  Al  Al28  1  0.11108851  0.75787898  0.87773513  1
  Al  Al29  1  0.21589943  0.87532370  0.59854962  1
  Al  Al30  1  0.78709506  0.76105500  0.39449977  1
  Al  Al31  1  0.88919497  0.87318276  0.13755541  1
  Al  Al32  1  0.55449576  0.87432128  0.58157598  1
  B  B33  1  0.89076115  0.20088420  0.64583461  1
  B  B34  1  0.89905823  0.85645931  0.65064460  1
  B  B35  1  0.44426828  0.76121823  0.81464249  1
  N  N36  1  0.21660190  0.20469373  0.33284731  1
  N  N37  1  0.10733313  0.09776491  0.07027151  1
  N  N38  1  0.88721395  0.20561149  0.80824242  1
  N  N39  1  0.79850192  0.09624635  0.59059312  1
  N  N40  1  0.56539305  0.20103375  0.33734826  1
  N  N41  1  0.44741857  0.08767843  0.12684657  1
  N  N42  1  0.21545457  0.21213388  0.83028943  1
  N  N43  1  0.08136176  0.11207394  0.59407656  1
  N  N44  1  0.89010720  0.20431517  0.32553302  1
  N  N45  1  0.78386448  0.09080203  0.06966763  1
  N  N46  1  0.55897983  0.20427063  0.83626726  1
  N  N47  1  0.44300900  0.09429477  0.62558510  1
  N  N48  1  0.21592194  0.54530078  0.33260298  1
  N  N49  1  0.10880162  0.42847646  0.08312706  1
  N  N50  1  0.89061366  0.53745518  0.82689029  1
  N  N51  1  0.79289178  0.40262141  0.58993986  1
  N  N52  1  0.55410265  0.54370717  0.38836805  1
  N  N53  1  0.44724690  0.43140285  0.12627618  1
  N  N54  1  0.21505235  0.53833222  0.83119087  1
  N  N55  1  0.10850977  0.42849184  0.57581651  1
  N  N56  1  0.88603420  0.54084589  0.33095187  1
  N  N57  1  0.78137487  0.42395406  0.07185683  1
  N  N58  1  0.53823921  0.56896564  0.87189243  1
  N  N59  1  0.44112269  0.43270342  0.62643463  1
  N  N60  1  0.22864501  0.86845667  0.39759561  1
  N  N61  1  0.10724070  0.76160324  0.07142868  1
  N  N62  1  0.88825731  0.87028110  0.80835837  1
  N  N63  1  0.79568548  0.77200909  0.59098990  1
  N  N64  1  0.55501929  0.86869347  0.38961725  1
  N  N65  1  0.44326802  0.76187953  0.13731913  1
  N  N66  1  0.24794287  0.85897733  0.86183667  1
  N  N67  1  0.08139190  0.77095848  0.59488691  1
  N  N68  1  0.88906575  0.87525718  0.32750078  1
  N  N69  1  0.78146964  0.76083556  0.07294595  1
  N  N70  1  0.53843220  0.86009114  0.87179671  1
  N  N71  1  0.44743640  0.76021925  0.65355633  1
