# generated using pymatgen
data_Al11BN12
_symmetry_space_group_name_H-M   'P 1'
_cell_length_a   9.28059065
_cell_length_b   9.33963925
_cell_length_c   9.96322647
_cell_angle_alpha   90.25672085
_cell_angle_beta   89.81528630
_cell_angle_gamma   60.06818437
_symmetry_Int_Tables_number   1
_chemical_formula_structural   Al11BN12
_chemical_formula_sum   'Al33 B3 N36'
_cell_volume   748.37859246
_cell_formula_units_Z   3
loop_
 _symmetry_equiv_pos_site_id
 _symmetry_equiv_pos_as_xyz
  1  'x, y, z'
loop_
 _atom_site_type_symbol
 _atom_site_label
 _atom_site_symmetry_multiplicity
 _atom_site_fract_x
 _atom_site_fract_y
 _atom_site_fract_z
 _atom_site_occupancy
  Al  Al0  1  0.10262389  0.10137680  0.39505820  1
  Al  Al1  1  0.22153309  0.20234249  0.13668179  1
  Al  Al2  1  0.78024633  0.09191673  0.87067576  1
  Al  Al3  1  0.44611751  0.09446403  0.39008994  1
  Al  Al4  1  0.55915813  0.20307209  0.13515488  1
  Al  Al5  1  0.10910805  0.09862337  0.87094633  1
  Al  Al6  1  0.21688257  0.20904446  0.63785651  1
  Al  Al7  1  0.78125793  0.09893650  0.39620959  1
  Al  Al8  1  0.89116638  0.20210571  0.13232641  1
  Al  Al9  1  0.44312160  0.09171472  0.88478025  1
  Al  Al10  1  0.56183901  0.21063996  0.63689595  1
  Al  Al11  1  0.11153324  0.42618369  0.38524445  1
  Al  Al12  1  0.22148645  0.54148911  0.13727206  1
  Al  Al13  1  0.77237028  0.43188023  0.88202810  1
  Al  Al14  1  0.89324041  0.53237790  0.63928347  1
  Al  Al15  1  0.44459031  0.42747635  0.38832698  1
  Al  Al16  1  0.56010997  0.53188305  0.13888043  1
  Al  Al17  1  0.11147002  0.42620281  0.89117216  1
  Al  Al18  1  0.21946592  0.53588192  0.63947290  1
  Al  Al19  1  0.78011540  0.42324955  0.39280660  1
  Al  Al20  1  0.88759654  0.53865067  0.13828335  1
  Al  Al21  1  0.44472021  0.43276921  0.88811641  1
  Al  Al22  1  0.55819790  0.53424735  0.63885390  1
  Al  Al23  1  0.10189684  0.76052756  0.39502739  1
  Al  Al24  1  0.23560144  0.86638477  0.05765027  1
  Al  Al25  1  0.77244294  0.75714199  0.88367329  1
  Al  Al26  1  0.43696159  0.76472792  0.32827819  1
  Al  Al27  1  0.55895887  0.87336699  0.13159538  1
  Al  Al28  1  0.11420331  0.75454608  0.87565489  1
  Al  Al29  1  0.20757984  0.87990660  0.59319001  1
  Al  Al30  1  0.78260374  0.76314738  0.39351058  1
  Al  Al31  1  0.89082898  0.87414774  0.13587166  1
  Al  Al32  1  0.55938624  0.87854070  0.63751883  1
  B  B33  1  0.88351110  0.20781353  0.64091166  1
  B  B34  1  0.90917557  0.82676491  0.65539653  1
  B  B35  1  0.43974422  0.76458997  0.80263378  1
  N  N36  1  0.22261623  0.20145011  0.32907516  1
  N  N37  1  0.10935573  0.09716754  0.06636777  1
  N  N38  1  0.88465854  0.20938950  0.80663945  1
  N  N39  1  0.78425116  0.12596484  0.58370050  1
  N  N40  1  0.55789550  0.20442476  0.32827455  1
  N  N41  1  0.44491401  0.09378594  0.07657591  1
  N  N42  1  0.22255853  0.20835849  0.82620715  1
  N  N43  1  0.07912407  0.11670868  0.59133135  1
  N  N44  1  0.89042047  0.20574827  0.32171988  1
  N  N45  1  0.78127275  0.09088989  0.06613909  1
  N  N46  1  0.55390423  0.20733153  0.82743222  1
  N  N47  1  0.44456484  0.09922498  0.58097259  1
  N  N48  1  0.22029848  0.54194031  0.32897494  1
  N  N49  1  0.11207506  0.42626762  0.08167575  1
  N  N50  1  0.89125574  0.53621106  0.82837881  1
  N  N51  1  0.78570833  0.41471994  0.58540332  1
  N  N52  1  0.56027861  0.53241498  0.33354059  1
  N  N53  1  0.44524607  0.42652737  0.07875715  1
  N  N54  1  0.22388652  0.53334761  0.82793391  1
  N  N55  1  0.11181027  0.42633308  0.57523432  1
  N  N56  1  0.88682984  0.54082259  0.33126876  1
  N  N57  1  0.77936212  0.42526468  0.07374833  1
  N  N58  1  0.54415651  0.56028093  0.83124588  1
  N  N59  1  0.43828349  0.43459267  0.57834536  1
  N  N60  1  0.22304769  0.86972989  0.39588060  1
  N  N61  1  0.10971334  0.75949633  0.06943405  1
  N  N62  1  0.88963710  0.86387618  0.80689899  1
  N  N63  1  0.79513799  0.76817677  0.59034724  1
  N  N64  1  0.56078235  0.87162106  0.34294036  1
  N  N65  1  0.43993894  0.76305319  0.13352040  1
  N  N66  1  0.24959790  0.85814766  0.85745521  1
  N  N67  1  0.08045902  0.76534308  0.59391508  1
  N  N68  1  0.88722929  0.87721199  0.32729236  1
  N  N69  1  0.78101655  0.75996708  0.07467843  1
  N  N70  1  0.54536819  0.86308322  0.83183940  1
  N  N71  1  0.43514103  0.76820842  0.63921256  1
