# generated using pymatgen
data_Al11BN12
_symmetry_space_group_name_H-M   'P 1'
_cell_length_a   9.26729994
_cell_length_b   9.33077749
_cell_length_c   9.98921689
_cell_angle_alpha   90.24090527
_cell_angle_beta   89.74634226
_cell_angle_gamma   60.04674231
_symmetry_Int_Tables_number   1
_chemical_formula_structural   Al11BN12
_chemical_formula_sum   'Al33 B3 N36'
_cell_volume   748.37854702
_cell_formula_units_Z   3
loop_
 _symmetry_equiv_pos_site_id
 _symmetry_equiv_pos_as_xyz
  1  'x, y, z'
loop_
 _atom_site_type_symbol
 _atom_site_label
 _atom_site_symmetry_multiplicity
 _atom_site_fract_x
 _atom_site_fract_y
 _atom_site_fract_z
 _atom_site_occupancy
  Al  Al0  1  0.10274595  0.10178931  0.39532373  1
  Al  Al1  1  0.22157838  0.20255428  0.13640825  1
  Al  Al2  1  0.77985083  0.09161401  0.87028111  1
  Al  Al3  1  0.44606391  0.09516783  0.38868480  1
  Al  Al4  1  0.55952957  0.20375942  0.13477087  1
  Al  Al5  1  0.10887983  0.09877368  0.86981112  1
  Al  Al6  1  0.21772540  0.20838962  0.63750439  1
  Al  Al7  1  0.78150517  0.09933130  0.39558955  1
  Al  Al8  1  0.89204967  0.20193723  0.13156826  1
  Al  Al9  1  0.44327174  0.09020803  0.88743633  1
  Al  Al10  1  0.56174078  0.20902809  0.63638511  1
  Al  Al11  1  0.11118861  0.42686626  0.38518296  1
  Al  Al12  1  0.22163770  0.54193596  0.13650156  1
  Al  Al13  1  0.77204814  0.43179737  0.88168101  1
  Al  Al14  1  0.89242219  0.53293885  0.63923458  1
  Al  Al15  1  0.44447401  0.42780796  0.38798726  1
  Al  Al16  1  0.56031798  0.53237789  0.13814041  1
  Al  Al17  1  0.11122409  0.42605026  0.89061405  1
  Al  Al18  1  0.21891925  0.53592997  0.63914425  1
  Al  Al19  1  0.78040338  0.42332521  0.39235372  1
  Al  Al20  1  0.88773776  0.53897562  0.13817254  1
  Al  Al21  1  0.44446033  0.43204733  0.88725403  1
  Al  Al22  1  0.55841526  0.53302836  0.63797949  1
  Al  Al23  1  0.10186081  0.76089387  0.39507560  1
  Al  Al24  1  0.23759855  0.86587416  0.05517850  1
  Al  Al25  1  0.77095389  0.75744087  0.88618967  1
  Al  Al26  1  0.43603223  0.76479696  0.32699650  1
  Al  Al27  1  0.56044640  0.87477534  0.13996262  1
  Al  Al28  1  0.11320690  0.75465440  0.87467272  1
  Al  Al29  1  0.20774013  0.87961174  0.59320056  1
  Al  Al30  1  0.78204659  0.76430224  0.39264494  1
  Al  Al31  1  0.89195415  0.87438687  0.13536223  1
  Al  Al32  1  0.55953434  0.87861856  0.64087510  1
  B  B33  1  0.88350959  0.20772906  0.64024963  1
  B  B34  1  0.90733165  0.82807095  0.65449363  1
  B  B35  1  0.43962277  0.76335319  0.80136645  1
  N  N36  1  0.22219284  0.20216868  0.32848508  1
  N  N37  1  0.11023943  0.09700708  0.06478183  1
  N  N38  1  0.88415350  0.20932006  0.80579502  1
  N  N39  1  0.78469768  0.12461984  0.58308603  1
  N  N40  1  0.55823108  0.20512802  0.32747570  1
  N  N41  1  0.44583809  0.09327109  0.07810464  1
  N  N42  1  0.22347947  0.20775823  0.82562728  1
  N  N43  1  0.07932656  0.11660217  0.59112233  1
  N  N44  1  0.89098819  0.20586487  0.32088050  1
  N  N45  1  0.78173176  0.09113900  0.06536547  1
  N  N46  1  0.55328683  0.20604850  0.82683265  1
  N  N47  1  0.44535404  0.09693770  0.57877530  1
  N  N48  1  0.22020362  0.54246754  0.32810281  1
  N  N49  1  0.11229398  0.42646323  0.08084455  1
  N  N50  1  0.89037811  0.53693474  0.82816721  1
  N  N51  1  0.78620055  0.41365234  0.58467748  1
  N  N52  1  0.56043905  0.53269217  0.33301748  1
  N  N53  1  0.44558944  0.42683376  0.07760902  1
  N  N54  1  0.22352336  0.53326258  0.82701728  1
  N  N55  1  0.11151568  0.42613363  0.57485939  1
  N  N56  1  0.88641330  0.54159532  0.33092246  1
  N  N57  1  0.77983968  0.42529996  0.07304189  1
  N  N58  1  0.54391839  0.55957437  0.82990564  1
  N  N59  1  0.43818542  0.43345246  0.57762630  1
  N  N60  1  0.22327869  0.87005548  0.39642985  1
  N  N61  1  0.11052770  0.75967108  0.06790531  1
  N  N62  1  0.88818051  0.86363469  0.80628663  1
  N  N63  1  0.79339300  0.76901571  0.58891456  1
  N  N64  1  0.56127862  0.87331461  0.33623995  1
  N  N65  1  0.44061488  0.76345014  0.13304543  1
  N  N66  1  0.24916972  0.85793002  0.85538962  1
  N  N67  1  0.07962911  0.76551610  0.59334716  1
  N  N68  1  0.88765083  0.87776324  0.32652621  1
  N  N69  1  0.78076716  0.76082218  0.07610492  1
  N  N70  1  0.54495158  0.86271567  0.83153931  1
  N  N71  1  0.43609723  0.76713833  0.63801954  1
