# generated using pymatgen
data_Al11BN12
_symmetry_space_group_name_H-M   'P 1'
_cell_length_a   9.25918899
_cell_length_b   9.25702748
_cell_length_c   9.89672794
_cell_angle_alpha   90.00018497
_cell_angle_beta   90.07534071
_cell_angle_gamma   60.00754830
_symmetry_Int_Tables_number   1
_chemical_formula_structural   Al11BN12
_chemical_formula_sum   'Al33 B3 N36'
_cell_volume   734.68182108
_cell_formula_units_Z   3
loop_
 _symmetry_equiv_pos_site_id
 _symmetry_equiv_pos_as_xyz
  1  'x, y, z'
loop_
 _atom_site_type_symbol
 _atom_site_label
 _atom_site_symmetry_multiplicity
 _atom_site_fract_x
 _atom_site_fract_y
 _atom_site_fract_z
 _atom_site_occupancy
  Al  Al0  1  0.11055115  0.09320212  0.31475976  1
  Al  Al1  1  0.22130236  0.20457981  0.05937355  1
  Al  Al2  1  0.78276218  0.09195200  0.80008744  1
  Al  Al3  1  0.44517809  0.09309589  0.30906250  1
  Al  Al4  1  0.55946743  0.20359933  0.05990936  1
  Al  Al5  1  0.10948250  0.09409370  0.80509062  1
  Al  Al6  1  0.21638182  0.20756940  0.55824485  1
  Al  Al7  1  0.78058381  0.09304139  0.32354630  1
  Al  Al8  1  0.88820976  0.20419240  0.06152579  1
  Al  Al9  1  0.44255742  0.09094178  0.80922218  1
  Al  Al10  1  0.56076740  0.20294913  0.55973641  1
  Al  Al11  1  0.11075822  0.42795373  0.30826395  1
  Al  Al12  1  0.22130254  0.54078340  0.05937367  1
  Al  Al13  1  0.77662725  0.42679308  0.80511837  1
  Al  Al14  1  0.89025869  0.53820342  0.55957449  1
  Al  Al15  1  0.44517810  0.42839215  0.30906258  1
  Al  Al16  1  0.55467069  0.54323419  0.05512100  1
  Al  Al17  1  0.11014541  0.42826035  0.80939461  1
  Al  Al18  1  0.21638149  0.54271508  0.55824475  1
  Al  Al19  1  0.77789694  0.42566417  0.31644510  1
  Al  Al20  1  0.88679454  0.53993548  0.05982232  1
  Al  Al21  1  0.44255741  0.43316736  0.80922205  1
  Al  Al22  1  0.55777098  0.53545873  0.56479821  1
  Al  Al23  1  0.11055122  0.76291277  0.31475987  1
  Al  Al24  1  0.22590707  0.87037911  0.05486330  1
  Al  Al25  1  0.77662695  0.76324560  0.80511840  1
  Al  Al26  1  0.44490011  0.76088326  0.31097156  1
  Al  Al27  1  0.55467088  0.86876090  0.05512106  1
  Al  Al28  1  0.10948231  0.76309009  0.80509056  1
  Al  Al29  1  0.21410727  0.87627959  0.56500163  1
  Al  Al30  1  0.77789718  0.76310492  0.31644531  1
  Al  Al31  1  0.88820973  0.87426414  0.06152586  1
  Al  Al32  1  0.55777126  0.87343602  0.56479830  1
  B  B33  1  0.89499137  0.19851911  0.55362607  1
  B  B34  1  0.89499130  0.87315716  0.55362609  1
  B  B35  1  0.44574849  0.76045879  0.80395863  1
  N  N36  1  0.22236982  0.20568901  0.36735783  1
  N  N37  1  0.11080004  0.09241856  0.12095945  1
  N  N38  1  0.88775332  0.20458919  0.87100239  1
  N  N39  1  0.79984247  0.08341159  0.60490736  1
  N  N40  1  0.55428390  0.20619095  0.36907309  1
  N  N41  1  0.44591072  0.09228506  0.11561464  1
  N  N42  1  0.22005871  0.20505655  0.86752036  1
  N  N43  1  0.08558487  0.10747667  0.61168338  1
  N  N44  1  0.89123629  0.20466215  0.39018022  1
  N  N45  1  0.77985112  0.09340803  0.12916128  1
  N  N46  1  0.55898883  0.20383878  0.86551563  1
  N  N47  1  0.44125834  0.09676836  0.61878940  1
  N  N48  1  0.22236972  0.53860689  0.36735775  1
  N  N49  1  0.11055021  0.42805812  0.11689630  1
  N  N50  1  0.88611736  0.54027413  0.86601100  1
  N  N51  1  0.78977865  0.40159781  0.61218402  1
  N  N52  1  0.55454399  0.54021080  0.37315441  1
  N  N53  1  0.44591072  0.42847091  0.11561473  1
  N  N54  1  0.22005877  0.54155066  0.86752040  1
  N  N55  1  0.11048199  0.42809235  0.61898057  1
  N  N56  1  0.88922112  0.53872228  0.36928476  1
  N  N57  1  0.77680078  0.42678003  0.12167606  1
  N  N58  1  0.54494112  0.56304500  0.85944192  1
  N  N59  1  0.44125829  0.42863987  0.61878925  1
  N  N60  1  0.22501650  0.87082471  0.37422155  1
  N  N61  1  0.11080005  0.76344777  0.12095966  1
  N  N62  1  0.88775312  0.87432353  0.87100240  1
  N  N63  1  0.78977846  0.77528945  0.61218414  1
  N  N64  1  0.55454415  0.87191120  0.37315448  1
  N  N65  1  0.44420200  0.76123233  0.12096273  1
  N  N66  1  0.24478068  0.86094263  0.85720687  1
  N  N67  1  0.08558488  0.77360533  0.61168333  1
  N  N68  1  0.89123634  0.87076780  0.39018017  1
  N  N69  1  0.77680103  0.76308571  0.12167605  1
  N  N70  1  0.54494089  0.85867990  0.85944205  1
  N  N71  1  0.44465803  0.76100415  0.63832968  1
