# generated using pymatgen
data_Al11BN12
_symmetry_space_group_name_H-M   'P 1'
_cell_length_a   9.26680262
_cell_length_b   9.32217382
_cell_length_c   9.96881638
_cell_angle_alpha   90.24312745
_cell_angle_beta   89.65833340
_cell_angle_gamma   60.06290343
_symmetry_Int_Tables_number   1
_chemical_formula_structural   Al11BN12
_chemical_formula_sum   'Al33 B3 N36'
_cell_volume   746.23132541
_cell_formula_units_Z   3
loop_
 _symmetry_equiv_pos_site_id
 _symmetry_equiv_pos_as_xyz
  1  'x, y, z'
loop_
 _atom_site_type_symbol
 _atom_site_label
 _atom_site_symmetry_multiplicity
 _atom_site_fract_x
 _atom_site_fract_y
 _atom_site_fract_z
 _atom_site_occupancy
  Al  Al0  1  0.10045373  0.10378385  0.40062615  1
  Al  Al1  1  0.22165355  0.20284766  0.14496141  1
  Al  Al2  1  0.78038576  0.09151464  0.87937432  1
  Al  Al3  1  0.44577024  0.09598134  0.39805927  1
  Al  Al4  1  0.55859602  0.20423127  0.14311470  1
  Al  Al5  1  0.11084355  0.09726105  0.88000833  1
  Al  Al6  1  0.21807495  0.20784907  0.64553516  1
  Al  Al7  1  0.78108876  0.09904879  0.40369640  1
  Al  Al8  1  0.88955824  0.20388880  0.14002952  1
  Al  Al9  1  0.44253792  0.09041068  0.89532470  1
  Al  Al10  1  0.56280217  0.20816877  0.64499656  1
  Al  Al11  1  0.11058098  0.42728686  0.39369672  1
  Al  Al12  1  0.22164131  0.54164651  0.14526167  1
  Al  Al13  1  0.77344686  0.43156161  0.88948716  1
  Al  Al14  1  0.89286829  0.53300818  0.64716111  1
  Al  Al15  1  0.44426799  0.42748635  0.39755381  1
  Al  Al16  1  0.55824903  0.53507741  0.15078089  1
  Al  Al17  1  0.11134736  0.42613175  0.89909826  1
  Al  Al18  1  0.21903918  0.53665288  0.64712553  1
  Al  Al19  1  0.77985391  0.42311442  0.40192663  1
  Al  Al20  1  0.88606771  0.53987018  0.14643546  1
  Al  Al21  1  0.44356323  0.43249048  0.89547972  1
  Al  Al22  1  0.55570982  0.54091148  0.64113901  1
  Al  Al23  1  0.09937592  0.76160751  0.40028574  1
  Al  Al24  1  0.23457557  0.86714111  0.07660803  1
  Al  Al25  1  0.77214022  0.75680295  0.89354936  1
  Al  Al26  1  0.44127546  0.76267020  0.36159402  1
  Al  Al27  1  0.55836485  0.87420605  0.15219441  1
  Al  Al28  1  0.11469192  0.75453037  0.88465139  1
  Al  Al29  1  0.21305888  0.87721039  0.59120167  1
  Al  Al30  1  0.78121366  0.76511440  0.40200056  1
  Al  Al31  1  0.88929580  0.87492783  0.14360043  1
  Al  Al32  1  0.55669739  0.87355485  0.64351208  1
  B  B33  1  0.88505386  0.20640043  0.64845132  1
  B  B34  1  0.90768956  0.83136108  0.66180373  1
  B  B35  1  0.44444361  0.76031432  0.84566738  1
  N  N36  1  0.22205848  0.20312592  0.33689694  1
  N  N37  1  0.10880590  0.09782141  0.07424771  1
  N  N38  1  0.88583977  0.20809714  0.81473574  1
  N  N39  1  0.78703158  0.12073913  0.59225788  1
  N  N40  1  0.55749922  0.20565349  0.33623519  1
  N  N41  1  0.44582564  0.09243991  0.08560821  1
  N  N42  1  0.22346607  0.20751649  0.83430262  1
  N  N43  1  0.08176834  0.11460904  0.59849969  1
  N  N44  1  0.88842078  0.20778007  0.32906785  1
  N  N45  1  0.78091305  0.09167263  0.07400432  1
  N  N46  1  0.55395137  0.20579165  0.83572280  1
  N  N47  1  0.44601703  0.09647399  0.58909819  1
  N  N48  1  0.22020671  0.54182644  0.33677925  1
  N  N49  1  0.11138336  0.42696389  0.08938578  1
  N  N50  1  0.89108392  0.53670414  0.83631691  1
  N  N51  1  0.78737956  0.41105062  0.59525600  1
  N  N52  1  0.56152687  0.52980896  0.34232264  1
  N  N53  1  0.44551024  0.42781508  0.08546772  1
  N  N54  1  0.22350408  0.53370911  0.83563329  1
  N  N55  1  0.11203770  0.42600591  0.58358302  1
  N  N56  1  0.88549075  0.54200278  0.33995846  1
  N  N57  1  0.77752264  0.42672840  0.08061282  1
  N  N58  1  0.54045767  0.56813915  0.83787773  1
  N  N59  1  0.43950851  0.43290598  0.58825539  1
  N  N60  1  0.21269376  0.87557539  0.39211435  1
  N  N61  1  0.10888848  0.76012405  0.07724889  1
  N  N62  1  0.88948823  0.86404515  0.81517227  1
  N  N63  1  0.79392711  0.76968231  0.59867932  1
  N  N64  1  0.56243942  0.87581779  0.34449995  1
  N  N65  1  0.44102361  0.76316956  0.14461762  1
  N  N66  1  0.25597453  0.85446250  0.86656137  1
  N  N67  1  0.08171679  0.76577391  0.60064048  1
  N  N68  1  0.88517980  0.87809544  0.33423735  1
  N  N69  1  0.77841848  0.76173572  0.08331204  1
  N  N70  1  0.54121131  0.85737135  0.83855474  1
  N  N71  1  0.44843898  0.76127083  0.58982898  1
