# generated using pymatgen
data_Al11BN12
_symmetry_space_group_name_H-M   'P 1'
_cell_length_a   9.29139862
_cell_length_b   9.27746500
_cell_length_c   10.11797716
_cell_angle_alpha   90.05625960
_cell_angle_beta   90.46038146
_cell_angle_gamma   59.82710235
_symmetry_Int_Tables_number   1
_chemical_formula_structural   Al11BN12
_chemical_formula_sum   'Al33 B3 N36'
_cell_volume   753.97809350
_cell_formula_units_Z   3
loop_
 _symmetry_equiv_pos_site_id
 _symmetry_equiv_pos_as_xyz
  1  'x, y, z'
loop_
 _atom_site_type_symbol
 _atom_site_label
 _atom_site_symmetry_multiplicity
 _atom_site_fract_x
 _atom_site_fract_y
 _atom_site_fract_z
 _atom_site_occupancy
  Al  Al0  1  0.12101129  0.08848564  0.32145030  1
  Al  Al1  1  0.21900386  0.20714986  0.07065986  1
  Al  Al2  1  0.77658316  0.08652201  0.80773328  1
  Al  Al3  1  0.44710006  0.09197153  0.32200847  1
  Al  Al4  1  0.55620123  0.20325306  0.07141626  1
  Al  Al5  1  0.11994953  0.08849144  0.82008153  1
  Al  Al6  1  0.21655514  0.20935245  0.56979188  1
  Al  Al7  1  0.77746432  0.09046218  0.33096511  1
  Al  Al8  1  0.88347956  0.21035376  0.14149784  1
  Al  Al9  1  0.44197543  0.09121036  0.82123175  1
  Al  Al10  1  0.56209359  0.19923345  0.57157007  1
  Al  Al11  1  0.11815094  0.42548880  0.32168206  1
  Al  Al12  1  0.21933436  0.54020938  0.07264544  1
  Al  Al13  1  0.77689371  0.43100870  0.88305065  1
  Al  Al14  1  0.88554605  0.54380168  0.64309763  1
  Al  Al15  1  0.44883497  0.42841386  0.32371221  1
  Al  Al16  1  0.54517000  0.54619999  0.06629004  1
  Al  Al17  1  0.11831852  0.42524192  0.82163636  1
  Al  Al18  1  0.21725390  0.54356704  0.56986488  1
  Al  Al19  1  0.79078529  0.41594078  0.40261253  1
  Al  Al20  1  0.87668547  0.54367061  0.14287489  1
  Al  Al21  1  0.44241179  0.43269328  0.82158754  1
  Al  Al22  1  0.55328965  0.53772583  0.58531300  1
  Al  Al23  1  0.11325640  0.76318986  0.32624985  1
  Al  Al24  1  0.22495719  0.86827757  0.06681838  1
  Al  Al25  1  0.77413885  0.75760249  0.88497175  1
  Al  Al26  1  0.44993697  0.75753148  0.32652491  1
  Al  Al27  1  0.54304023  0.87362125  0.06946715  1
  Al  Al28  1  0.10896735  0.76285084  0.81560140  1
  Al  Al29  1  0.21076883  0.87963281  0.57586169  1
  Al  Al30  1  0.78479150  0.75767192  0.40183431  1
  Al  Al31  1  0.89078714  0.87514538  0.07107286  1
  Al  Al32  1  0.55126494  0.87530285  0.58367595  1
  B  B33  1  0.90008024  0.21651516  0.65578090  1
  B  B34  1  0.89597134  0.88097739  0.56667425  1
  B  B35  1  0.44087301  0.76184094  0.81883045  1
  N  N36  1  0.22403246  0.20513147  0.38233618  1
  N  N37  1  0.11691509  0.08832261  0.12678223  1
  N  N38  1  0.88226669  0.21467271  0.81207507  1
  N  N39  1  0.79342022  0.06947049  0.62049084  1
  N  N40  1  0.55483525  0.20577551  0.38371446  1
  N  N41  1  0.44276393  0.09388722  0.13183379  1
  N  N42  1  0.22082787  0.20613968  0.88327195  1
  N  N43  1  0.09312031  0.10766618  0.62967086  1
  N  N44  1  0.89020369  0.20907697  0.33035056  1
  N  N45  1  0.77312570  0.08850487  0.13768399  1
  N  N46  1  0.55738841  0.20388935  0.88088233  1
  N  N47  1  0.43964654  0.09777691  0.63440779  1
  N  N48  1  0.22475495  0.53915408  0.38226185  1
  N  N49  1  0.11254672  0.42690046  0.13192589  1
  N  N50  1  0.88544981  0.54076467  0.82961482  1
  N  N51  1  0.79824287  0.39805907  0.59346792  1
  N  N52  1  0.55527512  0.54007160  0.39389469  1
  N  N53  1  0.44545037  0.42784433  0.13223785  1
  N  N54  1  0.22070378  0.54175720  0.88314348  1
  N  N55  1  0.11728828  0.42667490  0.63110958  1
  N  N56  1  0.88274505  0.54173011  0.33527448  1
  N  N57  1  0.77996896  0.42341084  0.07200202  1
  N  N58  1  0.53602922  0.56826567  0.87297291  1
  N  N59  1  0.44346203  0.42534900  0.63469575  1
  N  N60  1  0.22775637  0.87056853  0.38807427  1
  N  N61  1  0.11073171  0.76252598  0.13578458  1
  N  N62  1  0.89255001  0.87588550  0.88293421  1
  N  N63  1  0.78933902  0.76929235  0.59256916  1
  N  N64  1  0.55155692  0.87413518  0.38974338  1
  N  N65  1  0.44347494  0.75894570  0.13855618  1
  N  N66  1  0.24273094  0.85948927  0.87298056  1
  N  N67  1  0.08678769  0.77463572  0.62533922  1
  N  N68  1  0.89941545  0.87581543  0.40300985  1
  N  N69  1  0.77457134  0.75903799  0.07977293  1
  N  N70  1  0.53408057  0.86272163  0.87441623  1
  N  N71  1  0.44021694  0.76271740  0.65455951  1
