# generated using pymatgen
data_Al11BN12
_symmetry_space_group_name_H-M   'P 1'
_cell_length_a   9.32125653
_cell_length_b   9.30705048
_cell_length_c   9.99369298
_cell_angle_alpha   89.99932293
_cell_angle_beta   90.19548374
_cell_angle_gamma   60.04994741
_symmetry_Int_Tables_number   1
_chemical_formula_structural   Al11BN12
_chemical_formula_sum   'Al33 B3 N36'
_cell_volume   751.20444341
_cell_formula_units_Z   3
loop_
 _symmetry_equiv_pos_site_id
 _symmetry_equiv_pos_as_xyz
  1  'x, y, z'
loop_
 _atom_site_type_symbol
 _atom_site_label
 _atom_site_symmetry_multiplicity
 _atom_site_fract_x
 _atom_site_fract_y
 _atom_site_fract_z
 _atom_site_occupancy
  Al  Al0  1  0.10521466  0.09939258  0.39845821  1
  Al  Al1  1  0.21484809  0.20629298  0.13930944  1
  Al  Al2  1  0.78314521  0.09171088  0.87569623  1
  Al  Al3  1  0.45256612  0.08769599  0.32682846  1
  Al  Al4  1  0.55780440  0.20438051  0.09185455  1
  Al  Al5  1  0.11050748  0.09718725  0.87718481  1
  Al  Al6  1  0.20837110  0.21362559  0.64037831  1
  Al  Al7  1  0.78660004  0.08998341  0.39927618  1
  Al  Al8  1  0.88907597  0.20427815  0.13731335  1
  Al  Al9  1  0.44478989  0.08681957  0.82218356  1
  Al  Al10  1  0.56505629  0.20075542  0.61082261  1
  Al  Al11  1  0.11258882  0.42698936  0.38782832  1
  Al  Al12  1  0.21484788  0.54542584  0.13930932  1
  Al  Al13  1  0.77812450  0.42901268  0.87724118  1
  Al  Al14  1  0.88981464  0.53837565  0.63924177  1
  Al  Al15  1  0.45256561  0.42630557  0.32682829  1
  Al  Al16  1  0.54848190  0.54667416  0.06615567  1
  Al  Al17  1  0.10939240  0.42858742  0.89404009  1
  Al  Al18  1  0.20836994  0.54457073  0.64037850  1
  Al  Al19  1  0.78629823  0.41903009  0.39474324  1
  Al  Al20  1  0.88313719  0.54171438  0.13838229  1
  Al  Al21  1  0.44478922  0.43495696  0.82218378  1
  Al  Al22  1  0.55446582  0.53819725  0.58088881  1
  Al  Al23  1  0.10521500  0.76196115  0.39845796  1
  Al  Al24  1  0.23171895  0.86742417  0.06439195  1
  Al  Al25  1  0.77812450  0.75942967  0.87724068  1
  Al  Al26  1  0.44322007  0.76167395  0.32697101  1
  Al  Al27  1  0.54848251  0.87140941  0.06615578  1
  Al  Al28  1  0.11050717  0.75887347  0.87718515  1
  Al  Al29  1  0.21739480  0.87458593  0.59772974  1
  Al  Al30  1  0.78629842  0.76123870  0.39474344  1
  Al  Al31  1  0.88907599  0.87321219  0.13731329  1
  Al  Al32  1  0.55446621  0.87390303  0.58088916  1
  B  B33  1  0.89457278  0.20013051  0.64803985  1
  B  B34  1  0.89457246  0.87186543  0.64803976  1
  B  B35  1  0.44437921  0.76109318  0.81502225  1
  N  N36  1  0.21722070  0.20462002  0.33277469  1
  N  N37  1  0.10739826  0.09769376  0.07146213  1
  N  N38  1  0.88809146  0.20602322  0.80852862  1
  N  N39  1  0.80404455  0.08126114  0.59510153  1
  N  N40  1  0.56068515  0.20294014  0.36743028  1
  N  N41  1  0.44853363  0.08867007  0.12821129  1
  N  N42  1  0.21485234  0.21273172  0.83119113  1
  N  N43  1  0.08204970  0.11174619  0.59446510  1
  N  N44  1  0.88997698  0.20295320  0.32684612  1
  N  N45  1  0.78631414  0.09012705  0.06956690  1
  N  N46  1  0.55426826  0.20614818  0.85679963  1
  N  N47  1  0.44226935  0.09357037  0.62901214  1
  N  N48  1  0.21722030  0.54472720  0.33277457  1
  N  N49  1  0.10888040  0.42884379  0.08329562  1
  N  N50  1  0.89016624  0.53819998  0.82654158  1
  N  N51  1  0.79367999  0.39909186  0.59035154  1
  N  N52  1  0.55414454  0.54283601  0.38849789  1
  N  N53  1  0.44853333  0.42936220  0.12821094  1
  N  N54  1  0.21485172  0.53898371  0.83119142  1
  N  N55  1  0.10815580  0.42920611  0.57597400  1
  N  N56  1  0.88602206  0.54027248  0.33125208  1
  N  N57  1  0.78149733  0.42388987  0.07231839  1
  N  N58  1  0.53821109  0.56813442  0.87218707  1
  N  N59  1  0.44226824  0.43072808  0.62901218  1
  N  N60  1  0.22917852  0.86869462  0.39674690  1
  N  N61  1  0.10739794  0.76147671  0.07146190  1
  N  N62  1  0.88809113  0.87245205  0.80852856  1
  N  N63  1  0.79367978  0.77379520  0.59035151  1
  N  N64  1  0.55414478  0.86958492  0.38849828  1
  N  N65  1  0.44348285  0.76154171  0.13732411  1
  N  N66  1  0.24842268  0.85907221  0.86231690  1
  N  N67  1  0.08204896  0.77277259  0.59446472  1
  N  N68  1  0.88997681  0.87363708  0.32684601  1
  N  N69  1  0.78149766  0.76118066  0.07231810  1
  N  N70  1  0.53821147  0.86021910  0.87218734  1
  N  N71  1  0.44809603  0.75923532  0.65353402  1
