# generated using pymatgen
data_Mg2SbN3
_symmetry_space_group_name_H-M   'P 1'
_cell_length_a   5.43017500
_cell_length_b   5.99558724
_cell_length_c   10.42740679
_cell_angle_alpha   90.05665446
_cell_angle_beta   90.07989683
_cell_angle_gamma   89.93372020
_symmetry_Int_Tables_number   1
_chemical_formula_structural   Mg2SbN3
_chemical_formula_sum   'Mg8 Sb4 N12'
_cell_volume   339.48527693
_cell_formula_units_Z   4
loop_
 _symmetry_equiv_pos_site_id
 _symmetry_equiv_pos_as_xyz
  1  'x, y, z'
loop_
 _atom_site_type_symbol
 _atom_site_label
 _atom_site_symmetry_multiplicity
 _atom_site_fract_x
 _atom_site_fract_y
 _atom_site_fract_z
 _atom_site_occupancy
  Mg  Mg0  1  0.99025829  0.15263363  0.82364755  1
  Mg  Mg1  1  0.99900677  0.15087445  0.17720284  1
  Mg  Mg2  1  0.49836155  0.83270008  0.17709707  1
  Mg  Mg3  1  0.49542973  0.83176475  0.82374497  1
  Mg  Mg4  1  0.00609482  0.65220289  0.33127534  1
  Mg  Mg5  1  0.00520175  0.65330119  0.66876482  1
  Mg  Mg6  1  0.50413216  0.33260090  0.66838199  1
  Mg  Mg7  1  0.50582274  0.33206162  0.33056289  1
  Sb  Sb8  1  0.88243490  0.66475482  0.00030490  1
  Sb  Sb9  1  0.38236709  0.31901591  0.99980533  1
  Sb  Sb10  1  0.99726624  0.16768775  0.49988673  1
  Sb  Sb11  1  0.49745680  0.81763084  0.50000321  1
  N  N12  1  0.89885059  0.82113857  0.16734307  1
  N  N13  1  0.89839093  0.82085772  0.83337027  1
  N  N14  1  0.99789327  0.34305291  0.00004399  1
  N  N15  1  0.40144138  0.16318189  0.83283976  1
  N  N16  1  0.39863934  0.16252699  0.16674532  1
  N  N17  1  0.49708121  0.64085045  0.00045968  1
  N  N18  1  0.89032139  0.32141691  0.65840473  1
  N  N19  1  0.89137549  0.32029548  0.34089035  1
  N  N20  1  0.39061026  0.66497491  0.65863355  1
  N  N21  1  0.39163765  0.66437131  0.34107741  1
  N  N22  1  0.87923384  0.83907801  0.50001068  1
  N  N23  1  0.37906804  0.14636428  0.49950361  1
