# generated using pymatgen
data_Mg2SbN3
_symmetry_space_group_name_H-M   'P 1'
_cell_length_a   5.42409237
_cell_length_b   5.97746589
_cell_length_c   10.38941800
_cell_angle_alpha   90.00010822
_cell_angle_beta   90.00010272
_cell_angle_gamma   89.72027712
_symmetry_Int_Tables_number   1
_chemical_formula_structural   Mg2SbN3
_chemical_formula_sum   'Mg8 Sb4 N12'
_cell_volume   336.84509453
_cell_formula_units_Z   4
loop_
 _symmetry_equiv_pos_site_id
 _symmetry_equiv_pos_as_xyz
  1  'x, y, z'
loop_
 _atom_site_type_symbol
 _atom_site_label
 _atom_site_symmetry_multiplicity
 _atom_site_fract_x
 _atom_site_fract_y
 _atom_site_fract_z
 _atom_site_occupancy
  Mg  Mg0  1  0.00767191  0.15736435  0.82927366  1
  Mg  Mg1  1  0.00767222  0.15736467  0.17072643  1
  Mg  Mg2  1  0.48860199  0.83182525  0.17581250  1
  Mg  Mg3  1  0.48860185  0.83182517  0.82418745  1
  Mg  Mg4  1  0.00445552  0.65221892  0.33154416  1
  Mg  Mg5  1  0.00445568  0.65221898  0.66845594  1
  Mg  Mg6  1  0.50531997  0.33059223  0.66977044  1
  Mg  Mg7  1  0.50531980  0.33059217  0.33022963  1
  Sb  Sb8  1  0.88362233  0.67178146  0.00000085  1
  Sb  Sb9  1  0.49657844  0.30764460  0.00000051  1
  Sb  Sb10  1  0.99688444  0.16713448  0.49999964  1
  Sb  Sb11  1  0.49761536  0.81648221  0.49999952  1
  N  N12  1  0.89719490  0.82531758  0.16797833  1
  N  N13  1  0.89719480  0.82531772  0.83202141  1
  N  N14  1  0.88522993  0.32447113  1.00000010  1
  N  N15  1  0.39170673  0.16760931  0.83661488  1
  N  N16  1  0.39170719  0.16760976  0.16338428  1
  N  N17  1  0.48073605  0.64953999  0.99999987  1
  N  N18  1  0.89230244  0.31873998  0.66067400  1
  N  N19  1  0.89230262  0.31873962  0.33932652  1
  N  N20  1  0.39016853  0.66363030  0.65897808  1
  N  N21  1  0.39016883  0.66363068  0.34102180  1
  N  N22  1  0.87912352  0.83770965  0.50000008  1
  N  N23  1  0.37942187  0.14602441  0.49999990  1
