# generated using pymatgen
data_Mg2SbN3
_symmetry_space_group_name_H-M   'P 1'
_cell_length_a   5.44706300
_cell_length_b   5.96825038
_cell_length_c   10.40468518
_cell_angle_alpha   89.99995976
_cell_angle_beta   90.00006045
_cell_angle_gamma   90.00041792
_symmetry_Int_Tables_number   1
_chemical_formula_structural   Mg2SbN3
_chemical_formula_sum   'Mg8 Sb4 N12'
_cell_volume   338.25044542
_cell_formula_units_Z   4
loop_
 _symmetry_equiv_pos_site_id
 _symmetry_equiv_pos_as_xyz
  1  'x, y, z'
loop_
 _atom_site_type_symbol
 _atom_site_label
 _atom_site_symmetry_multiplicity
 _atom_site_fract_x
 _atom_site_fract_y
 _atom_site_fract_z
 _atom_site_occupancy
  Mg  Mg0  1  0.88704108  0.15050072  0.83312904  1
  Mg  Mg1  1  0.88699668  0.15050516  0.16687276  1
  Mg  Mg2  1  0.38702556  0.83411838  0.16687216  1
  Mg  Mg3  1  0.38704004  0.83409914  0.83312600  1
  Mg  Mg4  1  0.00648517  0.65051414  0.33312217  1
  Mg  Mg5  1  0.00649072  0.65050462  0.66687236  1
  Mg  Mg6  1  0.50649258  0.33410187  0.66687633  1
  Mg  Mg7  1  0.50648138  0.33411389  0.33312660  1
  Sb  Sb8  1  0.88999727  0.66651908  1.00000143  1
  Sb  Sb9  1  0.38999417  0.31808991  1.00000137  1
  Sb  Sb10  1  0.00352622  0.16652612  0.49999867  1
  Sb  Sb11  1  0.50352686  0.81809286  0.49999831  1
  N  N12  1  0.99684732  0.81946743  0.15860411  1
  N  N13  1  0.99685349  0.81944789  0.84139341  1
  N  N14  1  0.00981057  0.33773795  0.00000613  1
  N  N15  1  0.49685254  0.16515265  0.84139660  1
  N  N16  1  0.49686091  0.16516106  0.15860590  1
  N  N17  1  0.50981137  0.64687008  0.00000248  1
  N  N18  1  0.89667831  0.31945105  0.65860934  1
  N  N19  1  0.89667073  0.31946140  0.34139236  1
  N  N20  1  0.39667766  0.66515371  0.65860484  1
  N  N21  1  0.39667121  0.66516529  0.34138968  1
  N  N22  1  0.88371282  0.83774376  0.49999795  1
  N  N23  1  0.38371240  0.14687382  0.49999987  1
