# generated using pymatgen
data_Mg2SbN3
_symmetry_space_group_name_H-M   'P 1'
_cell_length_a   5.42173359
_cell_length_b   5.96976731
_cell_length_c   10.37988252
_cell_angle_alpha   90.00004853
_cell_angle_beta   89.99985193
_cell_angle_gamma   89.90592607
_symmetry_Int_Tables_number   1
_chemical_formula_structural   Mg2SbN3
_chemical_formula_sum   'Mg8 Sb4 N12'
_cell_volume   335.95989025
_cell_formula_units_Z   4
loop_
 _symmetry_equiv_pos_site_id
 _symmetry_equiv_pos_as_xyz
  1  'x, y, z'
loop_
 _atom_site_type_symbol
 _atom_site_label
 _atom_site_symmetry_multiplicity
 _atom_site_fract_x
 _atom_site_fract_y
 _atom_site_fract_z
 _atom_site_occupancy
  Mg  Mg0  1  0.00697216  0.15754256  0.82882170  1
  Mg  Mg1  1  0.00697214  0.15754256  0.17117824  1
  Mg  Mg2  1  0.49266357  0.82976321  0.17326546  1
  Mg  Mg3  1  0.49266353  0.82976309  0.82673465  1
  Mg  Mg4  1  0.00470300  0.65257327  0.33175685  1
  Mg  Mg5  1  0.00470285  0.65257336  0.66824299  1
  Mg  Mg6  1  0.50478713  0.33039585  0.67018753  1
  Mg  Mg7  1  0.50478724  0.33039581  0.32981242  1
  Sb  Sb8  1  0.93002700  0.67076445  0.00000083  1
  Sb  Sb9  1  0.49334258  0.31269599  0.00000052  1
  Sb  Sb10  1  0.99730546  0.16762843  0.49999940  1
  Sb  Sb11  1  0.49718766  0.81681703  0.49999937  1
  N  N12  1  0.89346021  0.82375969  0.16691254  1
  N  N13  1  0.89345992  0.82376046  0.83308664  1
  N  N14  1  0.88231662  0.32807945  0.99999995  1
  N  N15  1  0.39187828  0.16575593  0.83701149  1
  N  N16  1  0.39187855  0.16575636  0.16298800  1
  N  N17  1  0.44102019  0.64892806  0.99999994  1
  N  N18  1  0.89206663  0.31894146  0.66069001  1
  N  N19  1  0.89206696  0.31894100  0.33931071  1
  N  N20  1  0.39055658  0.66421075  0.65953914  1
  N  N21  1  0.39055700  0.66421116  0.34046149  1
  N  N22  1  0.87912984  0.83793985  0.50000008  1
  N  N23  1  0.37955181  0.14664481  0.50000005  1
