# generated using pymatgen
data_Mg2SbN3
_symmetry_space_group_name_H-M   'P 1'
_cell_length_a   5.44859852
_cell_length_b   5.96791119
_cell_length_c   10.40392307
_cell_angle_alpha   89.99999996
_cell_angle_beta   89.99999991
_cell_angle_gamma   90.00001313
_symmetry_Int_Tables_number   1
_chemical_formula_structural   Mg2SbN3
_chemical_formula_sum   'Mg8 Sb4 N12'
_cell_volume   338.30178692
_cell_formula_units_Z   4
loop_
 _symmetry_equiv_pos_site_id
 _symmetry_equiv_pos_as_xyz
  1  'x, y, z'
loop_
 _atom_site_type_symbol
 _atom_site_label
 _atom_site_symmetry_multiplicity
 _atom_site_fract_x
 _atom_site_fract_y
 _atom_site_fract_z
 _atom_site_occupancy
  Mg  Mg0  1  0.89843117  0.15050090  0.83313387  1
  Mg  Mg1  1  0.89843117  0.15050090  0.16686611  1
  Mg  Mg2  1  0.39843114  0.83411427  0.16686613  1
  Mg  Mg3  1  0.39843114  0.83411427  0.83313385  1
  Mg  Mg4  1  0.01797922  0.65050089  0.33313388  1
  Mg  Mg5  1  0.01797922  0.65050089  0.66686610  1
  Mg  Mg6  1  0.51797928  0.33411430  0.66686612  1
  Mg  Mg7  1  0.51797928  0.33411430  0.33313386  1
  Sb  Sb8  1  0.90142892  0.66651320  -0.00000001  1
  Sb  Sb9  1  0.40142893  0.31810192  -0.00000001  1
  Sb  Sb10  1  0.01498144  0.16651320  0.49999999  1
  Sb  Sb11  1  0.51498139  0.81810196  0.49999999  1
  N  N12  1  0.00834147  0.81946339  0.15860257  1
  N  N13  1  0.00834147  0.81946339  0.84139741  1
  N  N14  1  0.02131946  0.33773601  0.99999999  1
  N  N15  1  0.50834150  0.16515170  0.84139744  1
  N  N16  1  0.50834150  0.16515171  0.15860254  1
  N  N17  1  0.52131939  0.64687920  0.99999999  1
  N  N18  1  0.90806892  0.31946338  0.65860256  1
  N  N19  1  0.90806892  0.31946338  0.34139742  1
  N  N20  1  0.40806889  0.66515167  0.65860254  1
  N  N21  1  0.40806889  0.66515167  0.34139744  1
  N  N22  1  0.89509085  0.83773597  0.49999999  1
  N  N23  1  0.39509096  0.14687923  0.49999999  1
