# generated using pymatgen
data_Mg2SbN3
_symmetry_space_group_name_H-M   'P 1'
_cell_length_a   5.44245652
_cell_length_b   5.98731086
_cell_length_c   10.41577791
_cell_angle_alpha   90.07167486
_cell_angle_beta   89.97709355
_cell_angle_gamma   89.96808722
_symmetry_Int_Tables_number   1
_chemical_formula_structural   Mg2SbN3
_chemical_formula_sum   'Mg8 Sb4 N12'
_cell_volume   339.40485018
_cell_formula_units_Z   4
loop_
 _symmetry_equiv_pos_site_id
 _symmetry_equiv_pos_as_xyz
  1  'x, y, z'
loop_
 _atom_site_type_symbol
 _atom_site_label
 _atom_site_symmetry_multiplicity
 _atom_site_fract_x
 _atom_site_fract_y
 _atom_site_fract_z
 _atom_site_occupancy
  Mg  Mg0  1  0.88311965  0.15210853  0.83207687  1
  Mg  Mg1  1  0.97320516  0.15566076  0.17217172  1
  Mg  Mg2  1  0.38892164  0.82592666  0.16738595  1
  Mg  Mg3  1  0.38325450  0.83544867  0.83290780  1
  Mg  Mg4  1  0.00278924  0.64850942  0.33434593  1
  Mg  Mg5  1  0.00329146  0.65143310  0.66713525  1
  Mg  Mg6  1  0.50317231  0.33503425  0.66600794  1
  Mg  Mg7  1  0.50683046  0.33090737  0.33119389  1
  Sb  Sb8  1  0.88617299  0.66820286  0.99875912  1
  Sb  Sb9  1  0.38567080  0.32053142  0.99760710  1
  Sb  Sb10  1  0.00035049  0.16604005  0.50012209  1
  Sb  Sb11  1  0.50018001  0.81767099  0.50022926  1
  N  N12  1  0.99003015  0.81253047  0.15977115  1
  N  N13  1  0.99338713  0.82256644  0.84100248  1
  N  N14  1  0.00319485  0.34189971  0.99494942  1
  N  N15  1  0.49430009  0.16515704  0.84055716  1
  N  N16  1  0.42139541  0.16748606  0.16377329  1
  N  N17  1  0.50619376  0.64763386  0.99903879  1
  N  N18  1  0.89353828  0.32105438  0.65770677  1
  N  N19  1  0.89192003  0.31778140  0.34119658  1
  N  N20  1  0.39402639  0.66558890  0.65898032  1
  N  N21  1  0.39411298  0.66206294  0.34264966  1
  N  N22  1  0.88082623  0.83815257  0.50051467  1
  N  N23  1  0.38074267  0.14599674  0.49991676  1
