# generated using pymatgen
data_Mg2SbN3
_symmetry_space_group_name_H-M   'P 1'
_cell_length_a   5.43708306
_cell_length_b   5.99230986
_cell_length_c   10.41597679
_cell_angle_alpha   90.03316145
_cell_angle_beta   90.04869249
_cell_angle_gamma   90.02458993
_symmetry_Int_Tables_number   1
_chemical_formula_structural   Mg2SbN3
_chemical_formula_sum   'Mg8 Sb4 N12'
_cell_volume   339.35946324
_cell_formula_units_Z   4
loop_
 _symmetry_equiv_pos_site_id
 _symmetry_equiv_pos_as_xyz
  1  'x, y, z'
loop_
 _atom_site_type_symbol
 _atom_site_label
 _atom_site_symmetry_multiplicity
 _atom_site_fract_x
 _atom_site_fract_y
 _atom_site_fract_z
 _atom_site_occupancy
  Mg  Mg0  1  0.88328660  0.15597105  0.83227972  1
  Mg  Mg1  1  0.00060482  0.14918772  0.17629286  1
  Mg  Mg2  1  0.49979523  0.83333737  0.17642620  1
  Mg  Mg3  1  0.41281292  0.83039756  0.83013138  1
  Mg  Mg4  1  0.00626727  0.65140885  0.33042450  1
  Mg  Mg5  1  0.00335117  0.65240564  0.66655940  1
  Mg  Mg6  1  0.50160235  0.33452717  0.66505563  1
  Mg  Mg7  1  0.50642833  0.33192965  0.32956634  1
  Sb  Sb8  1  0.88354712  0.66529665  0.99827606  1
  Sb  Sb9  1  0.38233176  0.31805491  0.99788756  1
  Sb  Sb10  1  0.99827570  0.16725421  0.49946273  1
  Sb  Sb11  1  0.49884373  0.81794917  0.49916027  1
  N  N12  1  0.89761786  0.81920430  0.16649976  1
  N  N13  1  0.96936994  0.82186737  0.83823555  1
  N  N14  1  0.00053926  0.34068460  0.99676484  1
  N  N15  1  0.49116632  0.16600207  0.84001577  1
  N  N16  1  0.39725966  0.16331312  0.16570439  1
  N  N17  1  0.49960722  0.64188600  0.99824684  1
  N  N18  1  0.89236370  0.32215655  0.65710023  1
  N  N19  1  0.89165645  0.31896591  0.33994015  1
  N  N20  1  0.39194568  0.66448045  0.65720958  1
  N  N21  1  0.39156081  0.66427331  0.34042158  1
  N  N22  1  0.87975408  0.83874589  0.49936057  1
  N  N23  1  0.37957942  0.14608834  0.49897805  1
