# generated using pymatgen
data_Mg2SbN3
_symmetry_space_group_name_H-M   'P 1'
_cell_length_a   5.41788962
_cell_length_b   5.94586580
_cell_length_c   10.33744533
_cell_angle_alpha   90.00016346
_cell_angle_beta   89.99952268
_cell_angle_gamma   89.95567690
_symmetry_Int_Tables_number   1
_chemical_formula_structural   Mg2SbN3
_chemical_formula_sum   'Mg8 Sb4 N12'
_cell_volume   333.01082556
_cell_formula_units_Z   4
loop_
 _symmetry_equiv_pos_site_id
 _symmetry_equiv_pos_as_xyz
  1  'x, y, z'
loop_
 _atom_site_type_symbol
 _atom_site_label
 _atom_site_symmetry_multiplicity
 _atom_site_fract_x
 _atom_site_fract_y
 _atom_site_fract_z
 _atom_site_occupancy
  Mg  Mg0  1  0.00329769  0.15446115  0.82956275  1
  Mg  Mg1  1  0.00329707  0.15446113  0.17043681  1
  Mg  Mg2  1  0.50259636  0.83026947  0.17053182  1
  Mg  Mg3  1  0.50259700  0.83026927  0.82946811  1
  Mg  Mg4  1  0.00334506  0.65410784  0.32979320  1
  Mg  Mg5  1  0.00334445  0.65410786  0.67020635  1
  Mg  Mg6  1  0.50349467  0.33029822  0.67031529  1
  Mg  Mg7  1  0.50349531  0.33029802  0.32968462  1
  Sb  Sb8  1  0.99557368  0.66830031  0.99999975  1
  Sb  Sb9  1  0.49603470  0.31648318  -0.00000012  1
  Sb  Sb10  1  0.99646339  0.16794332  0.49999973  1
  Sb  Sb11  1  0.49645445  0.81644808  0.49999987  1
  N  N12  1  0.89053147  0.81883155  0.16174393  1
  N  N13  1  0.89053174  0.81883165  0.83825680  1
  N  N14  1  0.87844035  0.33711912  0.00000007  1
  N  N15  1  0.39068736  0.16607786  0.83837053  1
  N  N16  1  0.39068708  0.16607815  0.16162961  1
  N  N17  1  0.37862251  0.64760916  0.99999997  1
  N  N18  1  0.89085721  0.31869581  0.66144730  1
  N  N19  1  0.89085745  0.31869589  0.33855342  1
  N  N20  1  0.39068670  0.66575932  0.66139363  1
  N  N21  1  0.39068697  0.66575902  0.33860651  1
  N  N22  1  0.87869561  0.83712595  0.50000006  1
  N  N23  1  0.37876215  0.14736103  0.49999995  1
