# generated using pymatgen
data_Mg2SbN3
_symmetry_space_group_name_H-M   'P 1'
_cell_length_a   5.43785090
_cell_length_b   5.98749124
_cell_length_c   10.40857556
_cell_angle_alpha   90.01132859
_cell_angle_beta   90.04669598
_cell_angle_gamma   90.02555134
_symmetry_Int_Tables_number   1
_chemical_formula_structural   Mg2SbN3
_chemical_formula_sum   'Mg8 Sb4 N12'
_cell_volume   338.89353976
_cell_formula_units_Z   4
loop_
 _symmetry_equiv_pos_site_id
 _symmetry_equiv_pos_as_xyz
  1  'x, y, z'
loop_
 _atom_site_type_symbol
 _atom_site_label
 _atom_site_symmetry_multiplicity
 _atom_site_fract_x
 _atom_site_fract_y
 _atom_site_fract_z
 _atom_site_occupancy
  Mg  Mg0  1  0.88235038  0.15408181  0.83244373  1
  Mg  Mg1  1  0.00095042  0.14930303  0.17613379  1
  Mg  Mg2  1  0.50097176  0.83367449  0.17623264  1
  Mg  Mg3  1  0.39284947  0.83168894  0.83159206  1
  Mg  Mg4  1  0.00643582  0.65161423  0.33009152  1
  Mg  Mg5  1  0.00256140  0.65198566  0.66618552  1
  Mg  Mg6  1  0.50171804  0.33413726  0.66540295  1
  Mg  Mg7  1  0.50647984  0.33208997  0.32956005  1
  Sb  Sb8  1  0.88365059  0.66575757  0.99762569  1
  Sb  Sb9  1  0.38289121  0.31825860  0.99756285  1
  Sb  Sb10  1  0.99841151  0.16728488  0.49946274  1
  Sb  Sb11  1  0.49873216  0.81781025  0.49925140  1
  N  N12  1  0.89725783  0.81931239  0.16607817  1
  N  N13  1  0.98564423  0.82271552  0.83979273  1
  N  N14  1  0.00100827  0.34105801  0.99643402  1
  N  N15  1  0.49233709  0.16395293  0.84033209  1
  N  N16  1  0.39729280  0.16364073  0.16560375  1
  N  N17  1  0.50082201  0.64255734  0.99699866  1
  N  N18  1  0.89233667  0.32163154  0.65741044  1
  N  N19  1  0.89162255  0.31905842  0.33985573  1
  N  N20  1  0.39230724  0.66432525  0.65742333  1
  N  N21  1  0.39159099  0.66457832  0.34016214  1
  N  N22  1  0.87970882  0.83864597  0.49930306  1
  N  N23  1  0.37956834  0.14622496  0.49906090  1
