# generated using pymatgen
data_Mg2SbN3
_symmetry_space_group_name_H-M   'P 1'
_cell_length_a   5.42019859
_cell_length_b   5.96556309
_cell_length_c   10.37265180
_cell_angle_alpha   90.00004552
_cell_angle_beta   89.99961044
_cell_angle_gamma   89.90330502
_symmetry_Int_Tables_number   1
_chemical_formula_structural   Mg2SbN3
_chemical_formula_sum   'Mg8 Sb4 N12'
_cell_volume   335.39441237
_cell_formula_units_Z   4
loop_
 _symmetry_equiv_pos_site_id
 _symmetry_equiv_pos_as_xyz
  1  'x, y, z'
loop_
 _atom_site_type_symbol
 _atom_site_label
 _atom_site_symmetry_multiplicity
 _atom_site_fract_x
 _atom_site_fract_y
 _atom_site_fract_z
 _atom_site_occupancy
  Mg  Mg0  1  0.00621089  0.15715234  0.82879836  1
  Mg  Mg1  1  0.00621068  0.15715235  0.17120137  1
  Mg  Mg2  1  0.49470278  0.82953469  0.17259690  1
  Mg  Mg3  1  0.49470290  0.82953458  0.82740301  1
  Mg  Mg4  1  0.00442930  0.65279314  0.33155678  1
  Mg  Mg5  1  0.00442904  0.65279318  0.66844302  1
  Mg  Mg6  1  0.50464760  0.33030891  0.67022696  1
  Mg  Mg7  1  0.50464782  0.33030879  0.32977299  1
  Sb  Sb8  1  0.96051159  0.67012741  1.00000051  1
  Sb  Sb9  1  0.49355349  0.31406483  0.99999944  1
  Sb  Sb10  1  0.99731354  0.16763327  0.50000062  1
  Sb  Sb11  1  0.49710191  0.81674562  0.50000070  1
  N  N12  1  0.89158499  0.82238799  0.16556020  1
  N  N13  1  0.89158486  0.82238862  0.83443945  1
  N  N14  1  0.88047878  0.33098742  -0.00000001  1
  N  N15  1  0.39164576  0.16572000  0.83729826  1
  N  N16  1  0.39164543  0.16571987  0.16270234  1
  N  N17  1  0.41499260  0.64884500  -0.00000003  1
  N  N18  1  0.89195370  0.31892923  0.66073791  1
  N  N19  1  0.89195335  0.31892981  0.33926177  1
  N  N20  1  0.39054656  0.66436844  0.65978117  1
  N  N21  1  0.39054621  0.66436769  0.34021832  1
  N  N22  1  0.87911073  0.83785931  0.50000001  1
  N  N23  1  0.37955239  0.14673211  0.49999995  1
