# generated using pymatgen
data_Mg2SbN3
_symmetry_space_group_name_H-M   'P 1'
_cell_length_a   5.44092076
_cell_length_b   5.99142803
_cell_length_c   10.41247195
_cell_angle_alpha   90.12344309
_cell_angle_beta   89.99255149
_cell_angle_gamma   89.98391009
_symmetry_Int_Tables_number   1
_chemical_formula_structural   Mg2SbN3
_chemical_formula_sum   'Mg8 Sb4 N12'
_cell_volume   339.43417266
_cell_formula_units_Z   4
loop_
 _symmetry_equiv_pos_site_id
 _symmetry_equiv_pos_as_xyz
  1  'x, y, z'
loop_
 _atom_site_type_symbol
 _atom_site_label
 _atom_site_symmetry_multiplicity
 _atom_site_fract_x
 _atom_site_fract_y
 _atom_site_fract_z
 _atom_site_occupancy
  Mg  Mg0  1  0.88228004  0.15203985  0.83217028  1
  Mg  Mg1  1  0.99361916  0.15603252  0.17397173  1
  Mg  Mg2  1  0.42228853  0.82809765  0.17008073  1
  Mg  Mg3  1  0.38210433  0.83472783  0.83258115  1
  Mg  Mg4  1  0.00405712  0.64864715  0.33321621  1
  Mg  Mg5  1  0.00258588  0.65078738  0.66682524  1
  Mg  Mg6  1  0.50272620  0.33404797  0.66578070  1
  Mg  Mg7  1  0.50792612  0.33044535  0.33057953  1
  Sb  Sb8  1  0.88612171  0.66862496  0.99830166  1
  Sb  Sb9  1  0.38389384  0.32122167  0.99668419  1
  Sb  Sb10  1  0.99966383  0.16560648  0.49990284  1
  Sb  Sb11  1  0.50013254  0.81699351  0.50028485  1
  N  N12  1  0.96252563  0.81542112  0.16246045  1
  N  N13  1  0.99297219  0.82306090  0.84056587  1
  N  N14  1  0.00194194  0.34279226  0.99427471  1
  N  N15  1  0.49383046  0.16392140  0.84054806  1
  N  N16  1  0.40391543  0.16933934  0.16453509  1
  N  N17  1  0.50470742  0.64683047  0.99777451  1
  N  N18  1  0.89309189  0.32048162  0.65767983  1
  N  N19  1  0.89190499  0.31755371  0.34091905  1
  N  N20  1  0.39347023  0.66437313  0.65862227  1
  N  N21  1  0.39371572  0.66164598  0.34228384  1
  N  N22  1  0.88069350  0.83760290  0.50043861  1
  N  N23  1  0.38045802  0.14508942  0.49951858  1
