# generated using pymatgen
data_Mg2SbN3
_symmetry_space_group_name_H-M   'P 1'
_cell_length_a   5.42326878
_cell_length_b   5.97401394
_cell_length_c   10.38648478
_cell_angle_alpha   90.00004867
_cell_angle_beta   90.00008857
_cell_angle_gamma   89.90740826
_symmetry_Int_Tables_number   1
_chemical_formula_structural   Mg2SbN3
_chemical_formula_sum   'Mg8 Sb4 N12'
_cell_volume   336.50799124
_cell_formula_units_Z   4
loop_
 _symmetry_equiv_pos_site_id
 _symmetry_equiv_pos_as_xyz
  1  'x, y, z'
loop_
 _atom_site_type_symbol
 _atom_site_label
 _atom_site_symmetry_multiplicity
 _atom_site_fract_x
 _atom_site_fract_y
 _atom_site_fract_z
 _atom_site_occupancy
  Mg  Mg0  1  0.00729220  0.15750065  0.82895737  1
  Mg  Mg1  1  0.00729228  0.15750074  0.17104260  1
  Mg  Mg2  1  0.49085040  0.83062260  0.17448992  1
  Mg  Mg3  1  0.49085033  0.83062262  0.82551010  1
  Mg  Mg4  1  0.00476202  0.65254823  0.33171088  1
  Mg  Mg5  1  0.00476208  0.65254826  0.66828913  1
  Mg  Mg6  1  0.50503611  0.33059440  0.66999695  1
  Mg  Mg7  1  0.50503605  0.33059436  0.33000316  1
  Sb  Sb8  1  0.89783805  0.67123570  0.99999995  1
  Sb  Sb9  1  0.49435415  0.30994027  1.00000000  1
  Sb  Sb10  1  0.99718612  0.16760282  0.50000006  1
  Sb  Sb11  1  0.49738006  0.81684929  0.50000009  1
  N  N12  1  0.89584342  0.82466954  0.16776182  1
  N  N13  1  0.89584338  0.82466939  0.83223828  1
  N  N14  1  0.88429723  0.32559534  -0.00000003  1
  N  N15  1  0.39189624  0.16631774  0.83676181  1
  N  N16  1  0.39189628  0.16631780  0.16323800  1
  N  N17  1  0.46756861  0.64932242  0.99999991  1
  N  N18  1  0.89218327  0.31892671  0.66065182  1
  N  N19  1  0.89218322  0.31892665  0.33934825  1
  N  N20  1  0.39050880  0.66399968  0.65928355  1
  N  N21  1  0.39050879  0.66399968  0.34071628  1
  N  N22  1  0.87914552  0.83798500  0.50000006  1
  N  N23  1  0.37954232  0.14649470  0.50000002  1
