# generated using pymatgen
data_Mg2SbN3
_symmetry_space_group_name_H-M   'P 1'
_cell_length_a   5.43324374
_cell_length_b   5.99901644
_cell_length_c   10.43280169
_cell_angle_alpha   90.10948755
_cell_angle_beta   90.05035304
_cell_angle_gamma   90.01533242
_symmetry_Int_Tables_number   1
_chemical_formula_structural   Mg2SbN3
_chemical_formula_sum   'Mg8 Sb4 N12'
_cell_volume   340.04721068
_cell_formula_units_Z   4
loop_
 _symmetry_equiv_pos_site_id
 _symmetry_equiv_pos_as_xyz
  1  'x, y, z'
loop_
 _atom_site_type_symbol
 _atom_site_label
 _atom_site_symmetry_multiplicity
 _atom_site_fract_x
 _atom_site_fract_y
 _atom_site_fract_z
 _atom_site_occupancy
  Mg  Mg0  1  0.91791957  0.15753768  0.82886957  1
  Mg  Mg1  1  0.99952213  0.15010401  0.17693574  1
  Mg  Mg2  1  0.49698787  0.83306679  0.17694253  1
  Mg  Mg3  1  0.48741443  0.82726768  0.82501129  1
  Mg  Mg4  1  0.00582710  0.65195518  0.33119697  1
  Mg  Mg5  1  0.00591582  0.65422003  0.66815262  1
  Mg  Mg6  1  0.50213166  0.33511327  0.66577614  1
  Mg  Mg7  1  0.50585158  0.33219382  0.33001215  1
  Sb  Sb8  1  0.88119516  0.66310168  0.00048201  1
  Sb  Sb9  1  0.38241899  0.31729367  0.99889313  1
  Sb  Sb10  1  0.99816817  0.16777203  0.49938761  1
  Sb  Sb11  1  0.49794583  0.81839338  0.49959310  1
  N  N12  1  0.89806198  0.82012792  0.16722587  1
  N  N13  1  0.90471945  0.81723568  0.83395304  1
  N  N14  1  0.99833029  0.34025780  0.99823413  1
  N  N15  1  0.46090298  0.16693999  0.83652805  1
  N  N16  1  0.39678805  0.16286438  0.16654328  1
  N  N17  1  0.49534127  0.64041848  0.00131981  1
  N  N18  1  0.89195640  0.32344630  0.65674889  1
  N  N19  1  0.89135603  0.31979417  0.34041813  1
  N  N20  1  0.39044961  0.66578328  0.65787835  1
  N  N21  1  0.39135008  0.66442985  0.34109513  1
  N  N22  1  0.87943134  0.83945659  0.49984834  1
  N  N23  1  0.37958163  0.14661420  0.49895409  1
