# generated using pymatgen
data_Mg2SbN3
_symmetry_space_group_name_H-M   'P 1'
_cell_length_a   5.41328167
_cell_length_b   5.94484720
_cell_length_c   10.33573068
_cell_angle_alpha   89.99999984
_cell_angle_beta   89.99999927
_cell_angle_gamma   90.00001014
_symmetry_Int_Tables_number   1
_chemical_formula_structural   Mg2SbN3
_chemical_formula_sum   'Mg8 Sb4 N12'
_cell_volume   332.61551736
_cell_formula_units_Z   4
loop_
 _symmetry_equiv_pos_site_id
 _symmetry_equiv_pos_as_xyz
  1  'x, y, z'
loop_
 _atom_site_type_symbol
 _atom_site_label
 _atom_site_symmetry_multiplicity
 _atom_site_fract_x
 _atom_site_fract_y
 _atom_site_fract_z
 _atom_site_occupancy
  Mg  Mg0  1  0.98067195  0.15421243  0.82963331  1
  Mg  Mg1  1  0.98067194  0.15421243  0.17036669  1
  Mg  Mg2  1  0.48067197  0.83040299  0.17036671  1
  Mg  Mg3  1  0.48067197  0.83040299  0.82963329  1
  Mg  Mg4  1  0.98067195  0.65421243  0.32963331  1
  Mg  Mg5  1  0.98067194  0.65421244  0.67036669  1
  Mg  Mg6  1  0.48067197  0.33040299  0.67036671  1
  Mg  Mg7  1  0.48067197  0.33040299  0.32963329  1
  Sb  Sb8  1  0.97372540  0.66809109  -0.00000000  1
  Sb  Sb9  1  0.47372535  0.31652434  -0.00000000  1
  Sb  Sb10  1  0.97372540  0.16809109  0.50000000  1
  Sb  Sb11  1  0.47372535  0.81652434  0.50000000  1
  N  N12  1  0.86827031  0.81863782  0.16156376  1
  N  N13  1  0.86827031  0.81863782  0.83843624  1
  N  N14  1  0.85623664  0.33709570  1.00000000  1
  N  N15  1  0.36827031  0.16597745  0.83843626  1
  N  N16  1  0.36827031  0.16597745  0.16156374  1
  N  N17  1  0.35623667  0.64751973  1.00000000  1
  N  N18  1  0.86827030  0.31863782  0.66156376  1
  N  N19  1  0.86827030  0.31863782  0.33843624  1
  N  N20  1  0.36827030  0.66597745  0.66156374  1
  N  N21  1  0.36827030  0.66597745  0.33843626  1
  N  N22  1  0.85623664  0.83709570  0.50000000  1
  N  N23  1  0.35623667  0.14751972  0.50000000  1
