# generated using pymatgen
data_Mg2SbN3
_symmetry_space_group_name_H-M   'P 1'
_cell_length_a   5.44168850
_cell_length_b   5.99106463
_cell_length_c   10.41234614
_cell_angle_alpha   90.13558715
_cell_angle_beta   89.99607608
_cell_angle_gamma   89.98561916
_symmetry_Int_Tables_number   1
_chemical_formula_structural   Mg2SbN3
_chemical_formula_sum   'Mg8 Sb4 N12'
_cell_volume   339.45721915
_cell_formula_units_Z   4
loop_
 _symmetry_equiv_pos_site_id
 _symmetry_equiv_pos_as_xyz
  1  'x, y, z'
loop_
 _atom_site_type_symbol
 _atom_site_label
 _atom_site_symmetry_multiplicity
 _atom_site_fract_x
 _atom_site_fract_y
 _atom_site_fract_z
 _atom_site_occupancy
  Mg  Mg0  1  0.88248663  0.15216079  0.83212207  1
  Mg  Mg1  1  0.99113046  0.15681515  0.17362692  1
  Mg  Mg2  1  0.40108406  0.82659190  0.16860423  1
  Mg  Mg3  1  0.38242316  0.83508252  0.83271040  1
  Mg  Mg4  1  0.00335117  0.64817763  0.33391805  1
  Mg  Mg5  1  0.00269900  0.65091090  0.66700768  1
  Mg  Mg6  1  0.50280780  0.33430756  0.66578427  1
  Mg  Mg7  1  0.50790467  0.33023071  0.33066488  1
  Sb  Sb8  1  0.88635094  0.66898675  0.99867404  1
  Sb  Sb9  1  0.38443077  0.32148250  0.99690368  1
  Sb  Sb10  1  0.99988206  0.16553574  0.49998489  1
  Sb  Sb11  1  0.50015076  0.81702771  0.50030449  1
  N  N12  1  0.98061805  0.81385437  0.16111764  1
  N  N13  1  0.99294921  0.82305545  0.84074758  1
  N  N14  1  0.00220141  0.34301221  0.99422019  1
  N  N15  1  0.49393868  0.16445802  0.84056448  1
  N  N16  1  0.40646796  0.16931143  0.16441040  1
  N  N17  1  0.50567306  0.64765675  0.99854263  1
  N  N18  1  0.89312359  0.32060322  0.65765072  1
  N  N19  1  0.89184219  0.31732456  0.34100015  1
  N  N20  1  0.39359376  0.66466608  0.65880306  1
  N  N21  1  0.39427736  0.66133176  0.34250331  1
  N  N22  1  0.88073481  0.83765256  0.50053970  1
  N  N23  1  0.38050514  0.14514830  0.49959449  1
