
#======================================================================
# CRYSTAL DATA
#----------------------------------------------------------------------
data_VESTA_phase_1

_chemical_name_common                  'Mg   Al   Hf   N                      '
_cell_length_a                         9.850355
_cell_length_b                         9.860709
_cell_length_c                         9.983466
_cell_angle_alpha                      89.909500
_cell_angle_beta                       89.377449
_cell_angle_gamma                      60.092838
_cell_volume                           840.519222
_space_group_name_H-M_alt              'P 1'
_space_group_IT_number                 1

loop_
_space_group_symop_operation_xyz
   'x, y, z'

loop_
   _atom_site_label
   _atom_site_occupancy
   _atom_site_fract_x
   _atom_site_fract_y
   _atom_site_fract_z
   _atom_site_adp_type
   _atom_site_U_iso_or_equiv
   _atom_site_type_symbol
   Mg1        1.0     0.117346     0.094241     0.368700    Uiso  ? Mg
   Mg2        1.0     0.567519     0.524776     0.121645    Uiso  ? Mg
   Mg3        1.0     0.211568     0.875220     0.087810    Uiso  ? Mg
   Mg4        1.0     0.771991     0.758515     0.882474    Uiso  ? Mg
   Mg5        1.0     0.550992     0.884154     0.114355    Uiso  ? Mg
   Al1        1.0     0.220231     0.213739     0.133868    Uiso  ? Al
   Al2        1.0     0.900062     0.204436     0.630343    Uiso  ? Al
   Al3        1.0     0.428314     0.094094     0.381248    Uiso  ? Al
   Al4        1.0     0.529206     0.218740     0.141568    Uiso  ? Al
   Al5        1.0     0.117816     0.090249     0.885896    Uiso  ? Al
   Al6        1.0     0.218965     0.190058     0.629741    Uiso  ? Al
   Al7        1.0     0.900220     0.222983     0.133533    Uiso  ? Al
   Al8        1.0     0.436895     0.093165     0.886836    Uiso  ? Al
   Al9        1.0     0.114822     0.419257     0.389621    Uiso  ? Al
   Al10       1.0     0.221666     0.541063     0.074126    Uiso  ? Al
   Al11       1.0     0.778310     0.430108     0.881964    Uiso  ? Al
   Al12       1.0     0.877997     0.541566     0.628525    Uiso  ? Al
   Al13       1.0     0.440412     0.445822     0.382823    Uiso  ? Al
   Al14       1.0     0.214837     0.551066     0.575472    Uiso  ? Al
   Al15       1.0     0.770360     0.430958     0.387748    Uiso  ? Al
   Al16       1.0     0.899264     0.526949     0.133069    Uiso  ? Al
   Al17       1.0     0.447403     0.433468     0.887097    Uiso  ? Al
   Al18       1.0     0.552415     0.549724     0.640386    Uiso  ? Al
   Al19       1.0     0.125343     0.746170     0.318939    Uiso  ? Al
   Al20       1.0     0.899268     0.863287     0.570903    Uiso  ? Al
   Al21       1.0     0.437943     0.759466     0.301370    Uiso  ? Al
   Al22       1.0     0.122041     0.768753     0.816396    Uiso  ? Al
   Al23       1.0     0.233330     0.864041     0.561244    Uiso  ? Al
   Al24       1.0     0.907500     0.848036     0.080315    Uiso  ? Al
   Al25       1.0     0.441444     0.762674     0.895318    Uiso  ? Al
   Al26       1.0     0.546782     0.866771     0.643079    Uiso  ? Al
   Hf1        1.0     0.776073     0.100983     0.892226    Uiso  ? Hf
   Hf2        1.0     0.781404     0.097103     0.347304    Uiso  ? Hf
   Hf3        1.0     0.547666     0.209138     0.616100    Uiso  ? Hf
   Hf4        1.0     0.110874     0.428223     0.856786    Uiso  ? Hf
   Hf5        1.0     0.770090     0.756231     0.352789    Uiso  ? Hf
   N1         1.0     0.226428     0.218287     0.322953    Uiso  ? N
   N2         1.0     0.105956     0.116295     0.078042    Uiso  ? N
   N3         1.0     0.898015     0.209535     0.825085    Uiso  ? N
   N4         1.0     0.790101     0.091065     0.579823    Uiso  ? N
   N5         1.0     0.533974     0.218687     0.342155    Uiso  ? N
   N6         1.0     0.430986     0.117141     0.072851    Uiso  ? N
   N7         1.0     0.230022     0.188531     0.820118    Uiso  ? N
   N8         1.0     0.110472     0.090381     0.579736    Uiso  ? N
   N9         1.0     0.884240     0.226051     0.321100    Uiso  ? N
   N10        1.0     0.774497     0.095719     0.110039    Uiso  ? N
   N11        1.0     0.539666     0.213177     0.826057    Uiso  ? N
   N12        1.0     0.433636     0.084342     0.574000    Uiso  ? N
   N13        1.0     0.218585     0.538527     0.379785    Uiso  ? N
   N14        1.0     0.110806     0.428379     0.071786    Uiso  ? N
   N15        1.0     0.876525     0.536422     0.816142    Uiso  ? N
   N16        1.0     0.775423     0.425249     0.579499    Uiso  ? N
   N17        1.0     0.560173     0.537134     0.331508    Uiso  ? N
   N18        1.0     0.440501     0.418544     0.077255    Uiso  ? N
   N19        1.0     0.229963     0.553228     0.863150    Uiso  ? N
   N20        1.0     0.109977     0.423728     0.594012    Uiso  ? N
   N21        1.0     0.901900     0.513616     0.330582    Uiso  ? N
   N22        1.0     0.797464     0.423120     0.067673    Uiso  ? N
   N23        1.0     0.560872     0.533719     0.836391    Uiso  ? N
   N24        1.0     0.438917     0.446860     0.580533    Uiso  ? N
   N25        1.0     0.230893     0.851079     0.365125    Uiso  ? N
   N26        1.0     0.110462     0.744184     0.134150    Uiso  ? N
   N27        1.0     0.909491     0.864436     0.884582    Uiso  ? N
   N28        1.0     0.772296     0.762292     0.580336    Uiso  ? N
   N29        1.0     0.532422     0.886628     0.326898    Uiso  ? N
   N30        1.0     0.445932     0.756968     0.095700    Uiso  ? N
   N31        1.0     0.221466     0.873780     0.871484    Uiso  ? N
   N32        1.0     0.109277     0.764782     0.625178    Uiso  ? N
   N33        1.0     0.911910     0.857505     0.375138    Uiso  ? N
   N34        1.0     0.794303     0.748384     0.116609    Uiso  ? N
   N35        1.0     0.542159     0.881762     0.838011    Uiso  ? N
   N36        1.0     0.444268     0.759620     0.605792    Uiso  ? N
