
#======================================================================
# CRYSTAL DATA
#----------------------------------------------------------------------
data_VESTA_phase_1

_chemical_name_common                  'Mg   Al   Hf   N                      '
_cell_length_a                         9.847383
_cell_length_b                         9.857628
_cell_length_c                         9.994772
_cell_angle_alpha                      89.893730
_cell_angle_beta                       89.367867
_cell_angle_gamma                      60.091076
_cell_volume                           840.938650
_space_group_name_H-M_alt              'P 1'
_space_group_IT_number                 1

loop_
_space_group_symop_operation_xyz
   'x, y, z'

loop_
   _atom_site_label
   _atom_site_occupancy
   _atom_site_fract_x
   _atom_site_fract_y
   _atom_site_fract_z
   _atom_site_adp_type
   _atom_site_U_iso_or_equiv
   _atom_site_type_symbol
   Mg1        1.0     0.117504     0.094001     0.368658    Uiso  ? Mg
   Mg2        1.0     0.567604     0.524741     0.122105    Uiso  ? Mg
   Mg3        1.0     0.211549     0.875380     0.087875    Uiso  ? Mg
   Mg4        1.0     0.771855     0.758564     0.883037    Uiso  ? Mg
   Mg5        1.0     0.550801     0.884337     0.114808    Uiso  ? Mg
   Al1        1.0     0.220078     0.214235     0.133613    Uiso  ? Al
   Al2        1.0     0.900067     0.204241     0.630412    Uiso  ? Al
   Al3        1.0     0.428276     0.094100     0.381335    Uiso  ? Al
   Al4        1.0     0.528940     0.219010     0.141844    Uiso  ? Al
   Al5        1.0     0.117677     0.090400     0.886169    Uiso  ? Al
   Al6        1.0     0.219083     0.189681     0.629832    Uiso  ? Al
   Al7        1.0     0.900212     0.223053     0.133721    Uiso  ? Al
   Al8        1.0     0.436884     0.093131     0.886924    Uiso  ? Al
   Al9        1.0     0.114845     0.419113     0.389537    Uiso  ? Al
   Al10       1.0     0.221592     0.541885     0.071310    Uiso  ? Al
   Al11       1.0     0.778283     0.430159     0.882094    Uiso  ? Al
   Al12       1.0     0.877773     0.541661     0.628590    Uiso  ? Al
   Al13       1.0     0.440457     0.445670     0.382880    Uiso  ? Al
   Al14       1.0     0.214659     0.551287     0.574597    Uiso  ? Al
   Al15       1.0     0.770543     0.430780     0.387813    Uiso  ? Al
   Al16       1.0     0.899562     0.526908     0.132826    Uiso  ? Al
   Al17       1.0     0.448052     0.433272     0.887208    Uiso  ? Al
   Al18       1.0     0.552387     0.549751     0.640302    Uiso  ? Al
   Al19       1.0     0.125513     0.745627     0.318249    Uiso  ? Al
   Al20       1.0     0.899422     0.863041     0.570821    Uiso  ? Al
   Al21       1.0     0.437882     0.759404     0.301656    Uiso  ? Al
   Al22       1.0     0.121858     0.769041     0.816875    Uiso  ? Al
   Al23       1.0     0.233249     0.863774     0.561206    Uiso  ? Al
   Al24       1.0     0.907253     0.848381     0.080575    Uiso  ? Al
   Al25       1.0     0.441499     0.762713     0.895628    Uiso  ? Al
   Al26       1.0     0.546814     0.866692     0.643124    Uiso  ? Al
   Hf1        1.0     0.775763     0.101303     0.892803    Uiso  ? Hf
   Hf2        1.0     0.781567     0.096866     0.347390    Uiso  ? Hf
   Hf3        1.0     0.547744     0.209063     0.616125    Uiso  ? Hf
   Hf4        1.0     0.110887     0.428289     0.855993    Uiso  ? Hf
   Hf5        1.0     0.770164     0.756063     0.352765    Uiso  ? Hf
   N1         1.0     0.226460     0.218285     0.322656    Uiso  ? N
   N2         1.0     0.105921     0.116462     0.078058    Uiso  ? N
   N3         1.0     0.897904     0.209521     0.825033    Uiso  ? N
   N4         1.0     0.790200     0.090900     0.579496    Uiso  ? N
   N5         1.0     0.533998     0.218643     0.342203    Uiso  ? N
   N6         1.0     0.431022     0.117230     0.072739    Uiso  ? N
   N7         1.0     0.230005     0.188416     0.820004    Uiso  ? N
   N8         1.0     0.110478     0.090202     0.579550    Uiso  ? N
   N9         1.0     0.884338     0.225933     0.321051    Uiso  ? N
   N10        1.0     0.774589     0.095610     0.110372    Uiso  ? N
   N11        1.0     0.539560     0.213262     0.825848    Uiso  ? N
   N12        1.0     0.433648     0.084307     0.573898    Uiso  ? N
   N13        1.0     0.218532     0.538444     0.380056    Uiso  ? N
   N14        1.0     0.110753     0.428501     0.070772    Uiso  ? N
   N15        1.0     0.876347     0.536581     0.816034    Uiso  ? N
   N16        1.0     0.775498     0.425128     0.579378    Uiso  ? N
   N17        1.0     0.560247     0.537031     0.331684    Uiso  ? N
   N18        1.0     0.440858     0.418519     0.077108    Uiso  ? N
   N19        1.0     0.229868     0.553903     0.865331    Uiso  ? N
   N20        1.0     0.110065     0.423736     0.594357    Uiso  ? N
   N21        1.0     0.902093     0.513422     0.330333    Uiso  ? N
   N22        1.0     0.797425     0.423181     0.067627    Uiso  ? N
   N23        1.0     0.560945     0.533891     0.836106    Uiso  ? N
   N24        1.0     0.438741     0.446910     0.580614    Uiso  ? N
   N25        1.0     0.230771     0.850684     0.365230    Uiso  ? N
   N26        1.0     0.110458     0.744159     0.133845    Uiso  ? N
   N27        1.0     0.909173     0.864788     0.884944    Uiso  ? N
   N28        1.0     0.772244     0.762209     0.580107    Uiso  ? N
   N29        1.0     0.532357     0.886622     0.326960    Uiso  ? N
   N30        1.0     0.445959     0.756952     0.095835    Uiso  ? N
   N31        1.0     0.221497     0.873932     0.871719    Uiso  ? N
   N32        1.0     0.109290     0.764417     0.625884    Uiso  ? N
   N33        1.0     0.912236     0.857104     0.375203    Uiso  ? N
   N34        1.0     0.794174     0.748496     0.116765    Uiso  ? N
   N35        1.0     0.542141     0.881748     0.837874    Uiso  ? N
   N36        1.0     0.444258     0.759637     0.605496    Uiso  ? N
