
#======================================================================
# CRYSTAL DATA
#----------------------------------------------------------------------
data_VESTA_phase_1

_chemical_name_common                  'Mg   Al   Hf   N                      '
_cell_length_a                         9.792974
_cell_length_b                         9.804854
_cell_length_c                         10.096879
_cell_angle_alpha                      89.762032
_cell_angle_beta                       89.586205
_cell_angle_gamma                      60.047787
_cell_volume                           839.984102
_space_group_name_H-M_alt              'P 1'
_space_group_IT_number                 1

loop_
_space_group_symop_operation_xyz
   'x, y, z'

loop_
   _atom_site_label
   _atom_site_occupancy
   _atom_site_fract_x
   _atom_site_fract_y
   _atom_site_fract_z
   _atom_site_adp_type
   _atom_site_U_iso_or_equiv
   _atom_site_type_symbol
   Mg1        1.0     0.114004     0.085798     0.323630    Uiso  ? Mg
   Mg2        1.0     0.556738     0.540855     0.067876    Uiso  ? Mg
   Mg3        1.0     0.225254     0.874506     0.064279    Uiso  ? Mg
   Mg4        1.0     0.773830     0.758037     0.809352    Uiso  ? Mg
   Mg5        1.0     0.556399     0.863179     0.064668    Uiso  ? Mg
   Al1        1.0     0.223749     0.204402     0.124255    Uiso  ? Al
   Al2        1.0     0.890544     0.208204     0.566716    Uiso  ? Al
   Al3        1.0     0.435729     0.095993     0.379180    Uiso  ? Al
   Al4        1.0     0.536586     0.221685     0.058311    Uiso  ? Al
   Al5        1.0     0.119261     0.085221     0.805197    Uiso  ? Al
   Al6        1.0     0.209373     0.209381     0.576778    Uiso  ? Al
   Al7        1.0     0.906895     0.219162     0.058684    Uiso  ? Al
   Al8        1.0     0.431766     0.089878     0.878901    Uiso  ? Al
   Al9        1.0     0.113872     0.431291     0.312328    Uiso  ? Al
   Al10       1.0     0.225788     0.543119     0.073335    Uiso  ? Al
   Al11       1.0     0.771937     0.434539     0.813074    Uiso  ? Al
   Al12       1.0     0.888941     0.533222     0.563283    Uiso  ? Al
   Al13       1.0     0.439796     0.434722     0.314661    Uiso  ? Al
   Al14       1.0     0.215281     0.548182     0.559169    Uiso  ? Al
   Al15       1.0     0.776037     0.426020     0.313612    Uiso  ? Al
   Al16       1.0     0.887814     0.535717     0.069367    Uiso  ? Al
   Al17       1.0     0.440136     0.448729     0.815460    Uiso  ? Al
   Al18       1.0     0.553949     0.545361     0.563904    Uiso  ? Al
   Al19       1.0     0.123649     0.756357     0.313256    Uiso  ? Al
   Al20       1.0     0.899514     0.865744     0.569541    Uiso  ? Al
   Al21       1.0     0.436940     0.758325     0.311274    Uiso  ? Al
   Al22       1.0     0.123293     0.759340     0.813933    Uiso  ? Al
   Al23       1.0     0.224655     0.865545     0.565479    Uiso  ? Al
   Al24       1.0     0.905901     0.847003     0.061557    Uiso  ? Al
   Al25       1.0     0.443119     0.763256     0.811833    Uiso  ? Al
   Al26       1.0     0.549334     0.865729     0.576373    Uiso  ? Al
   Hf1        1.0     0.787168     0.088845     0.846112    Uiso  ? Hf
   Hf2        1.0     0.776618     0.100863     0.299837    Uiso  ? Hf
   Hf3        1.0     0.550878     0.209372     0.594884    Uiso  ? Hf
   Hf4        1.0     0.113536     0.428739     0.828140    Uiso  ? Hf
   Hf5        1.0     0.776485     0.757500     0.331622    Uiso  ? Hf
   N1         1.0     0.223689     0.217427     0.352615    Uiso  ? N
   N2         1.0     0.106329     0.106134     0.119296    Uiso  ? N
   N3         1.0     0.902010     0.215703     0.867876    Uiso  ? N
   N4         1.0     0.796051     0.082700     0.629622    Uiso  ? N
   N5         1.0     0.548012     0.212338     0.377692    Uiso  ? N
   N6         1.0     0.433446     0.109728     0.071253    Uiso  ? N
   N7         1.0     0.225471     0.193506     0.828860    Uiso  ? N
   N8         1.0     0.106516     0.092276     0.610785    Uiso  ? N
   N9         1.0     0.874499     0.218428     0.380976    Uiso  ? N
   N10        1.0     0.773023     0.098036     0.084751    Uiso  ? N
   N11        1.0     0.535752     0.221062     0.847895    Uiso  ? N
   N12        1.0     0.430365     0.090417     0.578154    Uiso  ? N
   N13        1.0     0.220487     0.539732     0.371549    Uiso  ? N
   N14        1.0     0.111345     0.432194     0.115639    Uiso  ? N
   N15        1.0     0.879994     0.531865     0.879614    Uiso  ? N
   N16        1.0     0.777364     0.427608     0.621770    Uiso  ? N
   N17        1.0     0.558012     0.534454     0.374398    Uiso  ? N
   N18        1.0     0.438263     0.420978     0.128911    Uiso  ? N
   N19        1.0     0.234100     0.549344     0.881346    Uiso  ? N
   N20        1.0     0.107367     0.434213     0.614831    Uiso  ? N
   N21        1.0     0.899425     0.517676     0.374475    Uiso  ? N
   N22        1.0     0.791743     0.420902     0.128460    Uiso  ? N
   N23        1.0     0.557892     0.540857     0.859088    Uiso  ? N
   N24        1.0     0.428218     0.451497     0.623324    Uiso  ? N
   N25        1.0     0.229666     0.852553     0.380860    Uiso  ? N
   N26        1.0     0.107285     0.753952     0.129478    Uiso  ? N
   N27        1.0     0.913089     0.849671     0.874960    Uiso  ? N
   N28        1.0     0.779489     0.758963     0.592458    Uiso  ? N
   N29        1.0     0.538680     0.875008     0.377445    Uiso  ? N
   N30        1.0     0.444186     0.758808     0.133190    Uiso  ? N
   N31        1.0     0.222705     0.872816     0.853276    Uiso  ? N
   N32        1.0     0.111153     0.757198     0.623813    Uiso  ? N
   N33        1.0     0.903630     0.874274     0.377994    Uiso  ? N
   N34        1.0     0.793737     0.751572     0.125807    Uiso  ? N
   N35        1.0     0.544233     0.877709     0.849249    Uiso  ? N
   N36        1.0     0.442876     0.757525     0.619785    Uiso  ? N
