
#======================================================================
# CRYSTAL DATA
#----------------------------------------------------------------------
data_VESTA_phase_1

_chemical_name_common                  'Mg   Al   Hf   N                      '
_cell_length_a                         9.776482
_cell_length_b                         9.777941
_cell_length_c                         10.134359
_cell_angle_alpha                      89.903862
_cell_angle_beta                       89.616699
_cell_angle_gamma                      60.101265
_cell_volume                           839.824744
_space_group_name_H-M_alt              'P 1'
_space_group_IT_number                 1

loop_
_space_group_symop_operation_xyz
   'x, y, z'

loop_
   _atom_site_label
   _atom_site_occupancy
   _atom_site_fract_x
   _atom_site_fract_y
   _atom_site_fract_z
   _atom_site_adp_type
   _atom_site_U_iso_or_equiv
   _atom_site_type_symbol
   Mg1        1.0     0.118447     0.088156     0.315600    Uiso  ? Mg
   Mg2        1.0     0.556005     0.541581     0.067950    Uiso  ? Mg
   Mg3        1.0     0.225010     0.872890     0.064251    Uiso  ? Mg
   Mg4        1.0     0.773514     0.758575     0.808311    Uiso  ? Mg
   Mg5        1.0     0.556304     0.862870     0.065692    Uiso  ? Mg
   Al1        1.0     0.216756     0.204671     0.071960    Uiso  ? Al
   Al2        1.0     0.893260     0.207599     0.567774    Uiso  ? Al
   Al3        1.0     0.434901     0.096551     0.372777    Uiso  ? Al
   Al4        1.0     0.538258     0.221030     0.061501    Uiso  ? Al
   Al5        1.0     0.119512     0.087591     0.809575    Uiso  ? Al
   Al6        1.0     0.208125     0.210475     0.559025    Uiso  ? Al
   Al7        1.0     0.902523     0.218644     0.059263    Uiso  ? Al
   Al8        1.0     0.438739     0.088752     0.878536    Uiso  ? Al
   Al9        1.0     0.117113     0.423205     0.307115    Uiso  ? Al
   Al10       1.0     0.225473     0.542741     0.073355    Uiso  ? Al
   Al11       1.0     0.771160     0.435384     0.812750    Uiso  ? Al
   Al12       1.0     0.889799     0.532145     0.562624    Uiso  ? Al
   Al13       1.0     0.439394     0.435010     0.314319    Uiso  ? Al
   Al14       1.0     0.215497     0.546826     0.558351    Uiso  ? Al
   Al15       1.0     0.776617     0.425329     0.314092    Uiso  ? Al
   Al16       1.0     0.887181     0.535800     0.069421    Uiso  ? Al
   Al17       1.0     0.439742     0.448783     0.815041    Uiso  ? Al
   Al18       1.0     0.553835     0.545251     0.563896    Uiso  ? Al
   Al19       1.0     0.124057     0.755694     0.313849    Uiso  ? Al
   Al20       1.0     0.900017     0.865046     0.569127    Uiso  ? Al
   Al21       1.0     0.436346     0.758820     0.312331    Uiso  ? Al
   Al22       1.0     0.123095     0.760238     0.813287    Uiso  ? Al
   Al23       1.0     0.224341     0.867854     0.566274    Uiso  ? Al
   Al24       1.0     0.905698     0.847466     0.061583    Uiso  ? Al
   Al25       1.0     0.442834     0.763400     0.811041    Uiso  ? Al
   Al26       1.0     0.548836     0.866944     0.575752    Uiso  ? Al
   Hf1        1.0     0.786875     0.089214     0.844323    Uiso  ? Hf
   Hf2        1.0     0.778924     0.099648     0.300943    Uiso  ? Hf
   Hf3        1.0     0.551190     0.208784     0.592685    Uiso  ? Hf
   Hf4        1.0     0.111811     0.431464     0.827189    Uiso  ? Hf
   Hf5        1.0     0.777246     0.756251     0.331376    Uiso  ? Hf
   N1         1.0     0.220299     0.218890     0.371690    Uiso  ? N
   N2         1.0     0.104207     0.106451     0.115979    Uiso  ? N
   N3         1.0     0.900007     0.217311     0.868442    Uiso  ? N
   N4         1.0     0.797142     0.082260     0.629317    Uiso  ? N
   N5         1.0     0.548342     0.211385     0.376633    Uiso  ? N
   N6         1.0     0.437858     0.107265     0.074582    Uiso  ? N
   N7         1.0     0.219582     0.196827     0.870090    Uiso  ? N
   N8         1.0     0.109098     0.095615     0.617921    Uiso  ? N
   N9         1.0     0.877688     0.216983     0.381996    Uiso  ? N
   N10        1.0     0.773938     0.098467     0.086133    Uiso  ? N
   N11        1.0     0.535864     0.221672     0.848437    Uiso  ? N
   N12        1.0     0.429651     0.090995     0.585300    Uiso  ? N
   N13        1.0     0.220080     0.537798     0.370795    Uiso  ? N
   N14        1.0     0.111925     0.429615     0.112907    Uiso  ? N
   N15        1.0     0.879421     0.533229     0.880048    Uiso  ? N
   N16        1.0     0.777182     0.427801     0.622052    Uiso  ? N
   N17        1.0     0.558095     0.534207     0.375084    Uiso  ? N
   N18        1.0     0.437881     0.421929     0.129220    Uiso  ? N
   N19        1.0     0.233199     0.550241     0.881542    Uiso  ? N
   N20        1.0     0.108639     0.430910     0.618311    Uiso  ? N
   N21        1.0     0.901092     0.516287     0.374058    Uiso  ? N
   N22        1.0     0.790611     0.421230     0.129231    Uiso  ? N
   N23        1.0     0.557197     0.541574     0.859368    Uiso  ? N
   N24        1.0     0.427888     0.451257     0.623600    Uiso  ? N
   N25        1.0     0.228147     0.855247     0.381673    Uiso  ? N
   N26        1.0     0.106858     0.753615     0.130430    Uiso  ? N
   N27        1.0     0.913051     0.849961     0.875497    Uiso  ? N
   N28        1.0     0.779925     0.758246     0.592533    Uiso  ? N
   N29        1.0     0.538607     0.875783     0.378510    Uiso  ? N
   N30        1.0     0.443269     0.759283     0.134894    Uiso  ? N
   N31        1.0     0.222909     0.873403     0.853730    Uiso  ? N
   N32        1.0     0.111592     0.756902     0.623691    Uiso  ? N
   N33        1.0     0.904174     0.873105     0.378611    Uiso  ? N
   N34        1.0     0.793830     0.751535     0.126396    Uiso  ? N
   N35        1.0     0.544281     0.877205     0.849862    Uiso  ? N
   N36        1.0     0.442906     0.757774     0.619828    Uiso  ? N
