
#======================================================================
# CRYSTAL DATA
#----------------------------------------------------------------------
data_VESTA_phase_1

_chemical_name_common                  'Mg   Al   Hf   N                      '
_cell_length_a                         9.834009
_cell_length_b                         9.852148
_cell_length_c                         10.083632
_cell_angle_alpha                      89.865128
_cell_angle_beta                       89.680901
_cell_angle_gamma                      59.953556
_cell_volume                           845.666152
_space_group_name_H-M_alt              'P 1'
_space_group_IT_number                 1

loop_
_space_group_symop_operation_xyz
   'x, y, z'

loop_
   _atom_site_label
   _atom_site_occupancy
   _atom_site_fract_x
   _atom_site_fract_y
   _atom_site_fract_z
   _atom_site_adp_type
   _atom_site_U_iso_or_equiv
   _atom_site_type_symbol
   Mg1        1.0     0.121251     0.090524     0.372195    Uiso  ? Mg
   Mg2        1.0     0.555177     0.535407     0.079566    Uiso  ? Mg
   Mg3        1.0     0.222717     0.867888     0.076688    Uiso  ? Mg
   Mg4        1.0     0.769063     0.759054     0.887690    Uiso  ? Mg
   Mg5        1.0     0.544361     0.879291     0.118595    Uiso  ? Mg
   Al1        1.0     0.220691     0.212451     0.132996    Uiso  ? Al
   Al2        1.0     0.899968     0.204774     0.633341    Uiso  ? Al
   Al3        1.0     0.428111     0.092117     0.384615    Uiso  ? Al
   Al4        1.0     0.534162     0.209883     0.143324    Uiso  ? Al
   Al5        1.0     0.115905     0.092624     0.885559    Uiso  ? Al
   Al6        1.0     0.217230     0.193468     0.632830    Uiso  ? Al
   Al7        1.0     0.901064     0.222637     0.133306    Uiso  ? Al
   Al8        1.0     0.438622     0.093059     0.884547    Uiso  ? Al
   Al9        1.0     0.116620     0.417761     0.389612    Uiso  ? Al
   Al10       1.0     0.228172     0.541417     0.073656    Uiso  ? Al
   Al11       1.0     0.778201     0.431878     0.881339    Uiso  ? Al
   Al12       1.0     0.881267     0.540812     0.630860    Uiso  ? Al
   Al13       1.0     0.433580     0.442718     0.324944    Uiso  ? Al
   Al14       1.0     0.216425     0.550914     0.571301    Uiso  ? Al
   Al15       1.0     0.779571     0.425152     0.387660    Uiso  ? Al
   Al16       1.0     0.898985     0.526957     0.133450    Uiso  ? Al
   Al17       1.0     0.441533     0.446118     0.815858    Uiso  ? Al
   Al18       1.0     0.551376     0.549917     0.576968    Uiso  ? Al
   Al19       1.0     0.128043     0.747175     0.319622    Uiso  ? Al
   Al20       1.0     0.900447     0.861718     0.570626    Uiso  ? Al
   Al21       1.0     0.436213     0.756364     0.311190    Uiso  ? Al
   Al22       1.0     0.116977     0.769369     0.820999    Uiso  ? Al
   Al23       1.0     0.226211     0.867185     0.570426    Uiso  ? Al
   Al24       1.0     0.906714     0.849689     0.082392    Uiso  ? Al
   Al25       1.0     0.438366     0.762721     0.824641    Uiso  ? Al
   Al26       1.0     0.553840     0.870452     0.636470    Uiso  ? Al
   Hf1        1.0     0.771386     0.105028     0.894207    Uiso  ? Hf
   Hf2        1.0     0.785603     0.095043     0.350277    Uiso  ? Hf
   Hf3        1.0     0.548349     0.208692     0.606293    Uiso  ? Hf
   Hf4        1.0     0.112581     0.429065     0.862422    Uiso  ? Hf
   Hf5        1.0     0.772706     0.755483     0.350587    Uiso  ? Hf
   N1         1.0     0.227818     0.216793     0.320953    Uiso  ? N
   N2         1.0     0.106686     0.114073     0.075121    Uiso  ? N
   N3         1.0     0.895460     0.210817     0.825510    Uiso  ? N
   N4         1.0     0.793097     0.090259     0.578359    Uiso  ? N
   N5         1.0     0.538881     0.210573     0.354843    Uiso  ? N
   N6         1.0     0.432932     0.114214     0.070474    Uiso  ? N
   N7         1.0     0.228777     0.190564     0.821300    Uiso  ? N
   N8         1.0     0.109933     0.092483     0.583240    Uiso  ? N
   N9         1.0     0.888284     0.223760     0.318756    Uiso  ? N
   N10        1.0     0.771010     0.097264     0.111437    Uiso  ? N
   N11        1.0     0.539031     0.213165     0.821153    Uiso  ? N
   N12        1.0     0.430511     0.086026     0.574964    Uiso  ? N
   N13        1.0     0.221514     0.537585     0.383878    Uiso  ? N
   N14        1.0     0.111379     0.429262     0.072412    Uiso  ? N
   N15        1.0     0.878738     0.537150     0.816985    Uiso  ? N
   N16        1.0     0.782750     0.422793     0.578367    Uiso  ? N
   N17        1.0     0.554260     0.537965     0.380037    Uiso  ? N
   N18        1.0     0.433006     0.424143     0.138008    Uiso  ? N
   N19        1.0     0.234110     0.554210     0.877714    Uiso  ? N
   N20        1.0     0.111213     0.423978     0.592807    Uiso  ? N
   N21        1.0     0.903741     0.512348     0.328727    Uiso  ? N
   N22        1.0     0.796893     0.423629     0.068445    Uiso  ? N
   N23        1.0     0.559962     0.537421     0.856004    Uiso  ? N
   N24        1.0     0.429910     0.451693     0.623460    Uiso  ? N
   N25        1.0     0.231572     0.847818     0.382093    Uiso  ? N
   N26        1.0     0.111167     0.746630     0.135932    Uiso  ? N
   N27        1.0     0.906501     0.866832     0.888952    Uiso  ? N
   N28        1.0     0.774712     0.760280     0.577984    Uiso  ? N
   N29        1.0     0.534260     0.883357     0.339501    Uiso  ? N
   N30        1.0     0.441664     0.754207     0.129935    Uiso  ? N
   N31        1.0     0.221428     0.874893     0.864892    Uiso  ? N
   N32        1.0     0.107701     0.761744     0.631783    Uiso  ? N
   N33        1.0     0.915136     0.855614     0.376835    Uiso  ? N
   N34        1.0     0.791794     0.750497     0.118282    Uiso  ? N
   N35        1.0     0.543569     0.884405     0.829469    Uiso  ? N
   N36        1.0     0.441477     0.761130     0.628633    Uiso  ? N
