
#======================================================================
# CRYSTAL DATA
#----------------------------------------------------------------------
data_VESTA_phase_1

_chemical_name_common                  'Mg   Al   Hf   N                      '
_cell_length_a                         9.855579
_cell_length_b                         9.874529
_cell_length_c                         10.017941
_cell_angle_alpha                      89.867630
_cell_angle_beta                       89.578850
_cell_angle_gamma                      59.976284
_cell_volume                           844.095363
_space_group_name_H-M_alt              'P 1'
_space_group_IT_number                 1

loop_
_space_group_symop_operation_xyz
   'x, y, z'

loop_
   _atom_site_label
   _atom_site_occupancy
   _atom_site_fract_x
   _atom_site_fract_y
   _atom_site_fract_z
   _atom_site_adp_type
   _atom_site_U_iso_or_equiv
   _atom_site_type_symbol
   Mg1        1.0     0.120640     0.090194     0.371389    Uiso  ? Mg
   Mg2        1.0     0.564209     0.532054     0.110381    Uiso  ? Mg
   Mg3        1.0     0.219245     0.869941     0.076538    Uiso  ? Mg
   Mg4        1.0     0.769907     0.758599     0.886644    Uiso  ? Mg
   Mg5        1.0     0.545883     0.880663     0.116519    Uiso  ? Mg
   Al1        1.0     0.219906     0.212652     0.133221    Uiso  ? Al
   Al2        1.0     0.900321     0.204790     0.631908    Uiso  ? Al
   Al3        1.0     0.428284     0.092815     0.382417    Uiso  ? Al
   Al4        1.0     0.534857     0.208784     0.139627    Uiso  ? Al
   Al5        1.0     0.115306     0.093805     0.884665    Uiso  ? Al
   Al6        1.0     0.217441     0.193244     0.630946    Uiso  ? Al
   Al7        1.0     0.901240     0.222277     0.133914    Uiso  ? Al
   Al8        1.0     0.437512     0.093440     0.885959    Uiso  ? Al
   Al9        1.0     0.115626     0.418131     0.388968    Uiso  ? Al
   Al10       1.0     0.225034     0.542255     0.073508    Uiso  ? Al
   Al11       1.0     0.779244     0.431205     0.882485    Uiso  ? Al
   Al12       1.0     0.881000     0.541257     0.628781    Uiso  ? Al
   Al13       1.0     0.434035     0.441282     0.319267    Uiso  ? Al
   Al14       1.0     0.219478     0.549897     0.569945    Uiso  ? Al
   Al15       1.0     0.771678     0.428820     0.387034    Uiso  ? Al
   Al16       1.0     0.899358     0.526819     0.133909    Uiso  ? Al
   Al17       1.0     0.441314     0.440968     0.830333    Uiso  ? Al
   Al18       1.0     0.558357     0.545304     0.628568    Uiso  ? Al
   Al19       1.0     0.127588     0.747652     0.320180    Uiso  ? Al
   Al20       1.0     0.900391     0.861830     0.571173    Uiso  ? Al
   Al21       1.0     0.436158     0.757110     0.305310    Uiso  ? Al
   Al22       1.0     0.117617     0.768766     0.819333    Uiso  ? Al
   Al23       1.0     0.229016     0.865425     0.569599    Uiso  ? Al
   Al24       1.0     0.906858     0.849340     0.082329    Uiso  ? Al
   Al25       1.0     0.436057     0.768716     0.834453    Uiso  ? Al
   Al26       1.0     0.552790     0.871111     0.636578    Uiso  ? Al
   Hf1        1.0     0.775275     0.101904     0.892238    Uiso  ? Hf
   Hf2        1.0     0.783837     0.096296     0.350501    Uiso  ? Hf
   Hf3        1.0     0.547171     0.209901     0.610230    Uiso  ? Hf
   Hf4        1.0     0.111442     0.429587     0.860072    Uiso  ? Hf
   Hf5        1.0     0.771758     0.755936     0.350847    Uiso  ? Hf
   N1         1.0     0.226698     0.216884     0.322005    Uiso  ? N
   N2         1.0     0.105909     0.114884     0.075420    Uiso  ? N
   N3         1.0     0.895956     0.211655     0.825237    Uiso  ? N
   N4         1.0     0.791597     0.090788     0.580933    Uiso  ? N
   N5         1.0     0.537758     0.210781     0.348739    Uiso  ? N
   N6         1.0     0.431337     0.114063     0.071678    Uiso  ? N
   N7         1.0     0.228982     0.190962     0.820813    Uiso  ? N
   N8         1.0     0.110368     0.091668     0.583062    Uiso  ? N
   N9         1.0     0.887409     0.223969     0.320581    Uiso  ? N
   N10        1.0     0.772668     0.096054     0.109829    Uiso  ? N
   N11        1.0     0.540067     0.212233     0.826750    Uiso  ? N
   N12        1.0     0.431058     0.086865     0.574542    Uiso  ? N
   N13        1.0     0.222509     0.536375     0.380786    Uiso  ? N
   N14        1.0     0.110417     0.428944     0.072144    Uiso  ? N
   N15        1.0     0.877902     0.537077     0.816301    Uiso  ? N
   N16        1.0     0.779141     0.424345     0.578738    Uiso  ? N
   N17        1.0     0.558433     0.534699     0.346356    Uiso  ? N
   N18        1.0     0.432989     0.422030     0.126482    Uiso  ? N
   N19        1.0     0.231418     0.555545     0.877814    Uiso  ? N
   N20        1.0     0.111021     0.424574     0.592783    Uiso  ? N
   N21        1.0     0.902247     0.512911     0.330312    Uiso  ? N
   N22        1.0     0.797645     0.423134     0.068117    Uiso  ? N
   N23        1.0     0.564372     0.535464     0.836016    Uiso  ? N
   N24        1.0     0.429976     0.450026     0.626450    Uiso  ? N
   N25        1.0     0.233092     0.847367     0.379476    Uiso  ? N
   N26        1.0     0.110590     0.746976     0.135648    Uiso  ? N
   N27        1.0     0.907778     0.864566     0.887112    Uiso  ? N
   N28        1.0     0.774177     0.761111     0.578698    Uiso  ? N
   N29        1.0     0.533533     0.883495     0.337574    Uiso  ? N
   N30        1.0     0.440754     0.758733     0.117898    Uiso  ? N
   N31        1.0     0.218293     0.876890     0.864291    Uiso  ? N
   N32        1.0     0.108755     0.760997     0.629335    Uiso  ? N
   N33        1.0     0.914035     0.856862     0.376417    Uiso  ? N
   N34        1.0     0.792519     0.749866     0.117748    Uiso  ? N
   N35        1.0     0.544280     0.885777     0.831121    Uiso  ? N
   N36        1.0     0.440844     0.763038     0.631323    Uiso  ? N
