
#======================================================================
# CRYSTAL DATA
#----------------------------------------------------------------------
data_VESTA_phase_1

_chemical_name_common                  'Mg   Al   Hf   N                      '
_cell_length_a                         9.730233
_cell_length_b                         9.733626
_cell_length_c                         10.166365
_cell_angle_alpha                      90.102371
_cell_angle_beta                       89.932060
_cell_angle_gamma                      60.080215
_cell_volume                           834.531570
_space_group_name_H-M_alt              'P 1'
_space_group_IT_number                 1

loop_
_space_group_symop_operation_xyz
   'x, y, z'

loop_
   _atom_site_label
   _atom_site_occupancy
   _atom_site_fract_x
   _atom_site_fract_y
   _atom_site_fract_z
   _atom_site_adp_type
   _atom_site_U_iso_or_equiv
   _atom_site_type_symbol
   Mg1        1.0     0.119116     0.089948     0.313164    Uiso  ? Mg
   Mg2        1.0     0.555698     0.542319     0.063790    Uiso  ? Mg
   Mg3        1.0     0.225777     0.871811     0.061501    Uiso  ? Mg
   Mg4        1.0     0.772283     0.758145     0.804561    Uiso  ? Mg
   Mg5        1.0     0.550891     0.871234     0.058550    Uiso  ? Mg
   Al1        1.0     0.221506     0.200133     0.066160    Uiso  ? Al
   Al2        1.0     0.894339     0.208097     0.564781    Uiso  ? Al
   Al3        1.0     0.432084     0.099096     0.304945    Uiso  ? Al
   Al4        1.0     0.532124     0.217515     0.056810    Uiso  ? Al
   Al5        1.0     0.119671     0.086822     0.808450    Uiso  ? Al
   Al6        1.0     0.216755     0.206119     0.554897    Uiso  ? Al
   Al7        1.0     0.902243     0.217887     0.055252    Uiso  ? Al
   Al8        1.0     0.436974     0.085717     0.812957    Uiso  ? Al
   Al9        1.0     0.118611     0.421596     0.304102    Uiso  ? Al
   Al10       1.0     0.224654     0.542998     0.069193    Uiso  ? Al
   Al11       1.0     0.771507     0.434769     0.808877    Uiso  ? Al
   Al12       1.0     0.890896     0.532313     0.558757    Uiso  ? Al
   Al13       1.0     0.439205     0.437040     0.307175    Uiso  ? Al
   Al14       1.0     0.216402     0.545755     0.555312    Uiso  ? Al
   Al15       1.0     0.776917     0.425568     0.310513    Uiso  ? Al
   Al16       1.0     0.886853     0.536040     0.066329    Uiso  ? Al
   Al17       1.0     0.440584     0.443662     0.812890    Uiso  ? Al
   Al18       1.0     0.555025     0.545237     0.561205    Uiso  ? Al
   Al19       1.0     0.123645     0.755657     0.310438    Uiso  ? Al
   Al20       1.0     0.898781     0.865758     0.565142    Uiso  ? Al
   Al21       1.0     0.435766     0.761328     0.310035    Uiso  ? Al
   Al22       1.0     0.122336     0.760552     0.809158    Uiso  ? Al
   Al23       1.0     0.224279     0.868485     0.563076    Uiso  ? Al
   Al24       1.0     0.904604     0.848892     0.056700    Uiso  ? Al
   Al25       1.0     0.444182     0.762087     0.808139    Uiso  ? Al
   Al26       1.0     0.546150     0.871846     0.565267    Uiso  ? Al
   Hf1        1.0     0.781554     0.091258     0.840929    Uiso  ? Hf
   Hf2        1.0     0.782052     0.098346     0.293275    Uiso  ? Hf
   Hf3        1.0     0.551436     0.207948     0.570925    Uiso  ? Hf
   Hf4        1.0     0.112605     0.429172     0.824890    Uiso  ? Hf
   Hf5        1.0     0.774381     0.757846     0.326024    Uiso  ? Hf
   N1         1.0     0.228073     0.216415     0.372287    Uiso  ? N
   N2         1.0     0.104646     0.106110     0.113359    Uiso  ? N
   N3         1.0     0.899889     0.216431     0.864928    Uiso  ? N
   N4         1.0     0.792775     0.085687     0.625322    Uiso  ? N
   N5         1.0     0.548474     0.209282     0.364934    Uiso  ? N
   N6         1.0     0.435855     0.108274     0.120788    Uiso  ? N
   N7         1.0     0.226687     0.191837     0.872891    Uiso  ? N
   N8         1.0     0.111388     0.095975     0.616212    Uiso  ? N
   N9         1.0     0.878239     0.216961     0.379470    Uiso  ? N
   N10        1.0     0.774528     0.096752     0.080584    Uiso  ? N
   N11        1.0     0.529576     0.219302     0.859124    Uiso  ? N
   N12        1.0     0.430699     0.091686     0.622424    Uiso  ? N
   N13        1.0     0.221177     0.537581     0.367888    Uiso  ? N
   N14        1.0     0.112660     0.428033     0.109109    Uiso  ? N
   N15        1.0     0.879749     0.532769     0.877428    Uiso  ? N
   N16        1.0     0.778274     0.428294     0.619018    Uiso  ? N
   N17        1.0     0.558274     0.535306     0.372522    Uiso  ? N
   N18        1.0     0.437810     0.422214     0.123352    Uiso  ? N
   N19        1.0     0.231845     0.550487     0.877345    Uiso  ? N
   N20        1.0     0.110717     0.429326     0.616362    Uiso  ? N
   N21        1.0     0.901857     0.516800     0.370703    Uiso  ? N
   N22        1.0     0.790426     0.420757     0.126332    Uiso  ? N
   N23        1.0     0.557266     0.539597     0.855430    Uiso  ? N
   N24        1.0     0.431734     0.446300     0.620870    Uiso  ? N
   N25        1.0     0.227291     0.856438     0.379030    Uiso  ? N
   N26        1.0     0.106345     0.754070     0.127244    Uiso  ? N
   N27        1.0     0.911642     0.851328     0.870722    Uiso  ? N
   N28        1.0     0.777915     0.759686     0.588798    Uiso  ? N
   N29        1.0     0.533245     0.887422     0.375934    Uiso  ? N
   N30        1.0     0.445228     0.760544     0.133389    Uiso  ? N
   N31        1.0     0.224091     0.872062     0.851287    Uiso  ? N
   N32        1.0     0.111723     0.757229     0.620063    Uiso  ? N
   N33        1.0     0.903427     0.872864     0.375261    Uiso  ? N
   N34        1.0     0.792383     0.753306     0.122490    Uiso  ? N
   N35        1.0     0.544212     0.876844     0.854593    Uiso  ? N
   N36        1.0     0.444148     0.759385     0.616517    Uiso  ? N
