
#======================================================================
# CRYSTAL DATA
#----------------------------------------------------------------------
data_VESTA_phase_1

_chemical_name_common                  'Mg   Al   Hf   N                      '
_cell_length_a                         9.765973
_cell_length_b                         9.790691
_cell_length_c                         10.272019
_cell_angle_alpha                      89.789932
_cell_angle_beta                       89.574150
_cell_angle_gamma                      60.255474
_cell_volume                           852.738006
_space_group_name_H-M_alt              'P 1'
_space_group_IT_number                 1

loop_
_space_group_symop_operation_xyz
   'x, y, z'

loop_
   _atom_site_label
   _atom_site_occupancy
   _atom_site_fract_x
   _atom_site_fract_y
   _atom_site_fract_z
   _atom_site_adp_type
   _atom_site_U_iso_or_equiv
   _atom_site_type_symbol
   Mg1        1.0     0.112964     0.091462     0.375495    Uiso  ? Mg
   Mg2        1.0     0.556159     0.543607     0.069451    Uiso  ? Mg
   Mg3        1.0     0.225868     0.868198     0.076614    Uiso  ? Mg
   Mg4        1.0     0.764880     0.754641     0.896040    Uiso  ? Mg
   Mg5        1.0     0.545073     0.884600     0.131616    Uiso  ? Mg
   Al1        1.0     0.223044     0.211200     0.137886    Uiso  ? Al
   Al2        1.0     0.902009     0.200757     0.635008    Uiso  ? Al
   Al3        1.0     0.427731     0.095268     0.391475    Uiso  ? Al
   Al4        1.0     0.533513     0.224828     0.059215    Uiso  ? Al
   Al5        1.0     0.118310     0.093295     0.888573    Uiso  ? Al
   Al6        1.0     0.215706     0.195486     0.635562    Uiso  ? Al
   Al7        1.0     0.898266     0.216200     0.116947    Uiso  ? Al
   Al8        1.0     0.434453     0.087939     0.883902    Uiso  ? Al
   Al9        1.0     0.117324     0.415802     0.392857    Uiso  ? Al
   Al10       1.0     0.228341     0.545305     0.078002    Uiso  ? Al
   Al11       1.0     0.765137     0.436592     0.814408    Uiso  ? Al
   Al12       1.0     0.886552     0.540987     0.631077    Uiso  ? Al
   Al13       1.0     0.436500     0.434211     0.320690    Uiso  ? Al
   Al14       1.0     0.219536     0.548378     0.570452    Uiso  ? Al
   Al15       1.0     0.768227     0.427728     0.312613    Uiso  ? Al
   Al16       1.0     0.901834     0.533450     0.141859    Uiso  ? Al
   Al17       1.0     0.440634     0.449105     0.818267    Uiso  ? Al
   Al18       1.0     0.555328     0.546094     0.565032    Uiso  ? Al
   Al19       1.0     0.124876     0.752182     0.323791    Uiso  ? Al
   Al20       1.0     0.901283     0.864826     0.576095    Uiso  ? Al
   Al21       1.0     0.435613     0.757221     0.314555    Uiso  ? Al
   Al22       1.0     0.122013     0.762858     0.820195    Uiso  ? Al
   Al23       1.0     0.228210     0.864954     0.570175    Uiso  ? Al
   Al24       1.0     0.910241     0.848699     0.072987    Uiso  ? Al
   Al25       1.0     0.437794     0.763077     0.818212    Uiso  ? Al
   Al26       1.0     0.556467     0.869002     0.636083    Uiso  ? Al
   Hf1        1.0     0.786389     0.086473     0.854821    Uiso  ? Hf
   Hf2        1.0     0.766138     0.091788     0.303246    Uiso  ? Hf
   Hf3        1.0     0.551586     0.209822     0.596538    Uiso  ? Hf
   Hf4        1.0     0.111014     0.429097     0.873136    Uiso  ? Hf
   Hf5        1.0     0.776053     0.755529     0.361796    Uiso  ? Hf
   N1         1.0     0.228817     0.214584     0.322880    Uiso  ? N
   N2         1.0     0.107988     0.115692     0.073516    Uiso  ? N
   N3         1.0     0.901229     0.213926     0.835301    Uiso  ? N
   N4         1.0     0.794103     0.077938     0.637814    Uiso  ? N
   N5         1.0     0.541937     0.216832     0.388415    Uiso  ? N
   N6         1.0     0.429324     0.111955     0.066208    Uiso  ? N
   N7         1.0     0.227539     0.192760     0.819797    Uiso  ? N
   N8         1.0     0.109526     0.091694     0.583631    Uiso  ? N
   N9         1.0     0.880715     0.208592     0.320215    Uiso  ? N
   N10        1.0     0.771642     0.098902     0.089634    Uiso  ? N
   N11        1.0     0.535263     0.223499     0.856362    Uiso  ? N
   N12        1.0     0.430489     0.086319     0.580947    Uiso  ? N
   N13        1.0     0.222758     0.538274     0.384520    Uiso  ? N
   N14        1.0     0.111481     0.430500     0.078168    Uiso  ? N
   N15        1.0     0.881348     0.539405     0.818100    Uiso  ? N
   N16        1.0     0.772022     0.424511     0.620334    Uiso  ? N
   N17        1.0     0.556797     0.535011     0.378583    Uiso  ? N
   N18        1.0     0.437607     0.420207     0.136449    Uiso  ? N
   N19        1.0     0.235604     0.553209     0.884244    Uiso  ? N
   N20        1.0     0.112378     0.421958     0.589629    Uiso  ? N
   N21        1.0     0.905408     0.513427     0.336412    Uiso  ? N
   N22        1.0     0.786268     0.431054     0.123870    Uiso  ? N
   N23        1.0     0.555806     0.543984     0.866314    Uiso  ? N
   N24        1.0     0.431382     0.450739     0.631103    Uiso  ? N
   N25        1.0     0.233348     0.847738     0.386765    Uiso  ? N
   N26        1.0     0.109316     0.750960     0.142165    Uiso  ? N
   N27        1.0     0.915763     0.849173     0.889598    Uiso  ? N
   N28        1.0     0.777294     0.758367     0.578473    Uiso  ? N
   N29        1.0     0.537459     0.885796     0.345380    Uiso  ? N
   N30        1.0     0.441750     0.757200     0.137921    Uiso  ? N
   N31        1.0     0.222727     0.874344     0.866088    Uiso  ? N
   N32        1.0     0.111721     0.757815     0.633475    Uiso  ? N
   N33        1.0     0.908300     0.871932     0.387168    Uiso  ? N
   N34        1.0     0.791906     0.755772     0.123606    Uiso  ? N
   N35        1.0     0.545612     0.883216     0.823836    Uiso  ? N
   N36        1.0     0.444672     0.756433     0.626619    Uiso  ? N
