
#======================================================================
# CRYSTAL DATA
#----------------------------------------------------------------------
data_VESTA_phase_1

_chemical_name_common                  'Mg   Al   Hf   N                      '
_cell_length_a                         9.789286
_cell_length_b                         9.801191
_cell_length_c                         10.197712
_cell_angle_alpha                      89.744537
_cell_angle_beta                       89.415527
_cell_angle_gamma                      59.896015
_cell_volume                           846.417242
_space_group_name_H-M_alt              'P 1'
_space_group_IT_number                 1

loop_
_space_group_symop_operation_xyz
   'x, y, z'

loop_
   _atom_site_label
   _atom_site_occupancy
   _atom_site_fract_x
   _atom_site_fract_y
   _atom_site_fract_z
   _atom_site_adp_type
   _atom_site_U_iso_or_equiv
   _atom_site_type_symbol
   Mg1        1.0     0.117026     0.087405     0.327434    Uiso  ? Mg
   Mg2        1.0     0.556604     0.538108     0.075231    Uiso  ? Mg
   Mg3        1.0     0.222197     0.875221     0.072950    Uiso  ? Mg
   Mg4        1.0     0.777294     0.759683     0.822787    Uiso  ? Mg
   Mg5        1.0     0.548679     0.875875     0.119812    Uiso  ? Mg
   Al1        1.0     0.220765     0.213661     0.139124    Uiso  ? Al
   Al2        1.0     0.893037     0.207402     0.573858    Uiso  ? Al
   Al3        1.0     0.433348     0.093331     0.389210    Uiso  ? Al
   Al4        1.0     0.534843     0.219930     0.065160    Uiso  ? Al
   Al5        1.0     0.115251     0.083193     0.818340    Uiso  ? Al
   Al6        1.0     0.218565     0.201041     0.633823    Uiso  ? Al
   Al7        1.0     0.906173     0.220103     0.067469    Uiso  ? Al
   Al8        1.0     0.432834     0.085865     0.886708    Uiso  ? Al
   Al9        1.0     0.120635     0.419730     0.385959    Uiso  ? Al
   Al10       1.0     0.225235     0.543861     0.078166    Uiso  ? Al
   Al11       1.0     0.769319     0.435095     0.819214    Uiso  ? Al
   Al12       1.0     0.885695     0.534045     0.578470    Uiso  ? Al
   Al13       1.0     0.438758     0.433557     0.322286    Uiso  ? Al
   Al14       1.0     0.219285     0.550490     0.574582    Uiso  ? Al
   Al15       1.0     0.777744     0.425080     0.322180    Uiso  ? Al
   Al16       1.0     0.882973     0.538915     0.074617    Uiso  ? Al
   Al17       1.0     0.441273     0.447055     0.821190    Uiso  ? Al
   Al18       1.0     0.554490     0.546178     0.568654    Uiso  ? Al
   Al19       1.0     0.123850     0.755626     0.322701    Uiso  ? Al
   Al20       1.0     0.899927     0.867259     0.577716    Uiso  ? Al
   Al21       1.0     0.436296     0.756911     0.316460    Uiso  ? Al
   Al22       1.0     0.122429     0.761691     0.821376    Uiso  ? Al
   Al23       1.0     0.225457     0.867316     0.571138    Uiso  ? Al
   Al24       1.0     0.905116     0.847361     0.071959    Uiso  ? Al
   Al25       1.0     0.440330     0.759108     0.821025    Uiso  ? Al
   Al26       1.0     0.548901     0.871485     0.630915    Uiso  ? Al
   Hf1        1.0     0.785086     0.090778     0.853948    Uiso  ? Hf
   Hf2        1.0     0.777406     0.101034     0.307593    Uiso  ? Hf
   Hf3        1.0     0.552468     0.208834     0.598185    Uiso  ? Hf
   Hf4        1.0     0.112783     0.428411     0.863917    Uiso  ? Hf
   Hf5        1.0     0.779530     0.755726     0.345277    Uiso  ? Hf
   N1         1.0     0.232698     0.217708     0.328695    Uiso  ? N
   N2         1.0     0.106758     0.107959     0.123333    Uiso  ? N
   N3         1.0     0.899952     0.217646     0.878201    Uiso  ? N
   N4         1.0     0.796008     0.083775     0.639250    Uiso  ? N
   N5         1.0     0.548911     0.212123     0.386581    Uiso  ? N
   N6         1.0     0.429984     0.108588     0.069519    Uiso  ? N
   N7         1.0     0.228463     0.190883     0.821176    Uiso  ? N
   N8         1.0     0.106668     0.090223     0.623459    Uiso  ? N
   N9         1.0     0.877126     0.216818     0.389522    Uiso  ? N
   N10        1.0     0.771016     0.098279     0.093726    Uiso  ? N
   N11        1.0     0.534371     0.220552     0.855464    Uiso  ? N
   N12        1.0     0.429994     0.088257     0.579160    Uiso  ? N
   N13        1.0     0.222357     0.540992     0.386970    Uiso  ? N
   N14        1.0     0.112139     0.428480     0.076641    Uiso  ? N
   N15        1.0     0.872101     0.536485     0.882830    Uiso  ? N
   N16        1.0     0.775865     0.426491     0.630773    Uiso  ? N
   N17        1.0     0.558140     0.533805     0.381044    Uiso  ? N
   N18        1.0     0.435554     0.418817     0.137874    Uiso  ? N
   N19        1.0     0.235270     0.553553     0.884355    Uiso  ? N
   N20        1.0     0.112959     0.427946     0.608545    Uiso  ? N
   N21        1.0     0.898408     0.514732     0.389827    Uiso  ? N
   N22        1.0     0.791573     0.421921     0.138142    Uiso  ? N
   N23        1.0     0.557000     0.539570     0.868729    Uiso  ? N
   N24        1.0     0.432702     0.449724     0.631794    Uiso  ? N
   N25        1.0     0.229305     0.854114     0.388210    Uiso  ? N
   N26        1.0     0.106656     0.752184     0.140353    Uiso  ? N
   N27        1.0     0.912970     0.851575     0.886530    Uiso  ? N
   N28        1.0     0.779413     0.760910     0.601197    Uiso  ? N
   N29        1.0     0.539726     0.880284     0.351669    Uiso  ? N
   N30        1.0     0.440126     0.755092     0.138156    Uiso  ? N
   N31        1.0     0.222523     0.872754     0.865375    Uiso  ? N
   N32        1.0     0.110950     0.760508     0.633661    Uiso  ? N
   N33        1.0     0.904156     0.876042     0.388266    Uiso  ? N
   N34        1.0     0.796022     0.749668     0.136899    Uiso  ? N
   N35        1.0     0.541057     0.883113     0.822683    Uiso  ? N
   N36        1.0     0.441847     0.756435     0.626891    Uiso  ? N
