
#======================================================================
# CRYSTAL DATA
#----------------------------------------------------------------------
data_VESTA_phase_1

_chemical_name_common                  'Mg   Al   Hf   N                      '
_cell_length_a                         9.810654
_cell_length_b                         9.828774
_cell_length_c                         10.148656
_cell_angle_alpha                      89.838631
_cell_angle_beta                       89.695984
_cell_angle_gamma                      60.047802
_cell_volume                           847.889668
_space_group_name_H-M_alt              'P 1'
_space_group_IT_number                 1

loop_
_space_group_symop_operation_xyz
   'x, y, z'

loop_
   _atom_site_label
   _atom_site_occupancy
   _atom_site_fract_x
   _atom_site_fract_y
   _atom_site_fract_z
   _atom_site_adp_type
   _atom_site_U_iso_or_equiv
   _atom_site_type_symbol
   Mg1        1.0     0.119936     0.090433     0.374024    Uiso  ? Mg
   Mg2        1.0     0.552359     0.539555     0.076290    Uiso  ? Mg
   Mg3        1.0     0.223805     0.867796     0.076159    Uiso  ? Mg
   Mg4        1.0     0.768151     0.757042     0.888772    Uiso  ? Mg
   Mg5        1.0     0.544587     0.880193     0.122999    Uiso  ? Mg
   Al1        1.0     0.220667     0.212030     0.133815    Uiso  ? Al
   Al2        1.0     0.900052     0.205049     0.634881    Uiso  ? Al
   Al3        1.0     0.428560     0.093670     0.387647    Uiso  ? Al
   Al4        1.0     0.533881     0.213914     0.118039    Uiso  ? Al
   Al5        1.0     0.116920     0.092439     0.886095    Uiso  ? Al
   Al6        1.0     0.217100     0.193644     0.633696    Uiso  ? Al
   Al7        1.0     0.900667     0.223560     0.130397    Uiso  ? Al
   Al8        1.0     0.438061     0.091399     0.881731    Uiso  ? Al
   Al9        1.0     0.117525     0.416883     0.390113    Uiso  ? Al
   Al10       1.0     0.226633     0.543564     0.074770    Uiso  ? Al
   Al11       1.0     0.778013     0.432538     0.883514    Uiso  ? Al
   Al12       1.0     0.881803     0.539114     0.631132    Uiso  ? Al
   Al13       1.0     0.434166     0.440050     0.325025    Uiso  ? Al
   Al14       1.0     0.216928     0.550486     0.571033    Uiso  ? Al
   Al15       1.0     0.780796     0.423002     0.386642    Uiso  ? Al
   Al16       1.0     0.898762     0.527915     0.135197    Uiso  ? Al
   Al17       1.0     0.441776     0.447472     0.815214    Uiso  ? Al
   Al18       1.0     0.549775     0.550265     0.569463    Uiso  ? Al
   Al19       1.0     0.127267     0.749092     0.321206    Uiso  ? Al
   Al20       1.0     0.900225     0.863016     0.573029    Uiso  ? Al
   Al21       1.0     0.436089     0.757074     0.313357    Uiso  ? Al
   Al22       1.0     0.119065     0.767031     0.820676    Uiso  ? Al
   Al23       1.0     0.225850     0.867015     0.571380    Uiso  ? Al
   Al24       1.0     0.906934     0.848999     0.078939    Uiso  ? Al
   Al25       1.0     0.439477     0.761067     0.821604    Uiso  ? Al
   Al26       1.0     0.555195     0.869107     0.635586    Uiso  ? Al
   Hf1        1.0     0.775275     0.100016     0.878948    Uiso  ? Hf
   Hf2        1.0     0.779337     0.095305     0.335459    Uiso  ? Hf
   Hf3        1.0     0.548654     0.209545     0.603619    Uiso  ? Hf
   Hf4        1.0     0.112721     0.428863     0.864858    Uiso  ? Hf
   Hf5        1.0     0.774744     0.754683     0.353534    Uiso  ? Hf
   N1         1.0     0.229063     0.215780     0.320559    Uiso  ? N
   N2         1.0     0.106605     0.114089     0.074274    Uiso  ? N
   N3         1.0     0.897481     0.212934     0.826696    Uiso  ? N
   N4         1.0     0.794100     0.086278     0.598434    Uiso  ? N
   N5         1.0     0.538381     0.215340     0.371365    Uiso  ? N
   N6         1.0     0.430807     0.112840     0.067022    Uiso  ? N
   N7         1.0     0.228139     0.190994     0.820745    Uiso  ? N
   N8         1.0     0.109409     0.092785     0.583352    Uiso  ? N
   N9         1.0     0.886696     0.221465     0.316519    Uiso  ? N
   N10        1.0     0.767800     0.098992     0.105292    Uiso  ? N
   N11        1.0     0.536151     0.215993     0.824737    Uiso  ? N
   N12        1.0     0.430546     0.084739     0.577027    Uiso  ? N
   N13        1.0     0.221083     0.538631     0.384224    Uiso  ? N
   N14        1.0     0.111246     0.429662     0.073367    Uiso  ? N
   N15        1.0     0.879276     0.536141     0.816244    Uiso  ? N
   N16        1.0     0.782225     0.421742     0.576430    Uiso  ? N
   N17        1.0     0.554475     0.537687     0.378636    Uiso  ? N
   N18        1.0     0.432217     0.424901     0.139285    Uiso  ? N
   N19        1.0     0.235127     0.553792     0.879998    Uiso  ? N
   N20        1.0     0.111722     0.422941     0.591512    Uiso  ? N
   N21        1.0     0.904788     0.511049     0.328432    Uiso  ? N
   N22        1.0     0.796247     0.425582     0.069323    Uiso  ? N
   N23        1.0     0.558420     0.538901     0.863190    Uiso  ? N
   N24        1.0     0.430111     0.453620     0.625189    Uiso  ? N
   N25        1.0     0.232299     0.847800     0.384721    Uiso  ? N
   N26        1.0     0.109630     0.748905     0.138175    Uiso  ? N
   N27        1.0     0.909470     0.861304     0.889042    Uiso  ? N
   N28        1.0     0.776151     0.757929     0.577286    Uiso  ? N
   N29        1.0     0.536463     0.884601     0.341270    Uiso  ? N
   N30        1.0     0.440689     0.755779     0.134319    Uiso  ? N
   N31        1.0     0.222768     0.874148     0.864984    Uiso  ? N
   N32        1.0     0.108689     0.760322     0.632878    Uiso  ? N
   N33        1.0     0.913499     0.860434     0.380738    Uiso  ? N
   N34        1.0     0.791595     0.751383     0.119607    Uiso  ? N
   N35        1.0     0.544574     0.883106     0.826803    Uiso  ? N
   N36        1.0     0.442662     0.758962     0.627705    Uiso  ? N
