
#======================================================================
# CRYSTAL DATA
#----------------------------------------------------------------------
data_VESTA_phase_1

_chemical_name_common                  'Mg   Al   Hf   N                      '
_cell_length_a                         9.860135
_cell_length_b                         9.869299
_cell_length_c                         10.001658
_cell_angle_alpha                      89.849625
_cell_angle_beta                       89.499466
_cell_angle_gamma                      59.993000
_cell_volume                           842.798449
_space_group_name_H-M_alt              'P 1'
_space_group_IT_number                 1

loop_
_space_group_symop_operation_xyz
   'x, y, z'

loop_
   _atom_site_label
   _atom_site_occupancy
   _atom_site_fract_x
   _atom_site_fract_y
   _atom_site_fract_z
   _atom_site_adp_type
   _atom_site_U_iso_or_equiv
   _atom_site_type_symbol
   Mg1        1.0     0.120414     0.089827     0.371441    Uiso  ? Mg
   Mg2        1.0     0.567811     0.533178     0.116558    Uiso  ? Mg
   Mg3        1.0     0.218949     0.870425     0.075884    Uiso  ? Mg
   Mg4        1.0     0.769967     0.758523     0.886243    Uiso  ? Mg
   Mg5        1.0     0.546167     0.880969     0.116205    Uiso  ? Mg
   Al1        1.0     0.219758     0.212083     0.133221    Uiso  ? Al
   Al2        1.0     0.900032     0.205285     0.631426    Uiso  ? Al
   Al3        1.0     0.428262     0.093916     0.381792    Uiso  ? Al
   Al4        1.0     0.535767     0.208368     0.138118    Uiso  ? Al
   Al5        1.0     0.115448     0.093983     0.884104    Uiso  ? Al
   Al6        1.0     0.217849     0.193162     0.630018    Uiso  ? Al
   Al7        1.0     0.901259     0.221597     0.133611    Uiso  ? Al
   Al8        1.0     0.437050     0.093209     0.886709    Uiso  ? Al
   Al9        1.0     0.114566     0.417877     0.388166    Uiso  ? Al
   Al10       1.0     0.219417     0.544500     0.075408    Uiso  ? Al
   Al11       1.0     0.779396     0.430986     0.882388    Uiso  ? Al
   Al12       1.0     0.879999     0.541528     0.628268    Uiso  ? Al
   Al13       1.0     0.436159     0.440228     0.330266    Uiso  ? Al
   Al14       1.0     0.220266     0.549314     0.567781    Uiso  ? Al
   Al15       1.0     0.771168     0.428919     0.387221    Uiso  ? Al
   Al16       1.0     0.899291     0.526673     0.133740    Uiso  ? Al
   Al17       1.0     0.447460     0.435636     0.881283    Uiso  ? Al
   Al18       1.0     0.555631     0.542292     0.634647    Uiso  ? Al
   Al19       1.0     0.126522     0.749022     0.319770    Uiso  ? Al
   Al20       1.0     0.899887     0.862263     0.571504    Uiso  ? Al
   Al21       1.0     0.435516     0.758460     0.304364    Uiso  ? Al
   Al22       1.0     0.118822     0.767463     0.818364    Uiso  ? Al
   Al23       1.0     0.229803     0.864605     0.570064    Uiso  ? Al
   Al24       1.0     0.906072     0.850417     0.082184    Uiso  ? Al
   Al25       1.0     0.435801     0.768654     0.835173    Uiso  ? Al
   Al26       1.0     0.552494     0.871234     0.636118    Uiso  ? Al
   Hf1        1.0     0.777648     0.100194     0.891501    Uiso  ? Hf
   Hf2        1.0     0.781984     0.097672     0.351911    Uiso  ? Hf
   Hf3        1.0     0.545253     0.213382     0.617488    Uiso  ? Hf
   Hf4        1.0     0.111668     0.430114     0.858423    Uiso  ? Hf
   Hf5        1.0     0.771631     0.756160     0.350978    Uiso  ? Hf
   N1         1.0     0.226206     0.216505     0.322121    Uiso  ? N
   N2         1.0     0.105854     0.114817     0.075215    Uiso  ? N
   N3         1.0     0.896614     0.211670     0.824993    Uiso  ? N
   N4         1.0     0.790100     0.091892     0.581463    Uiso  ? N
   N5         1.0     0.535948     0.212471     0.339557    Uiso  ? N
   N6         1.0     0.430791     0.113991     0.072163    Uiso  ? N
   N7         1.0     0.229325     0.191106     0.820400    Uiso  ? N
   N8         1.0     0.110457     0.091459     0.583077    Uiso  ? N
   N9         1.0     0.887117     0.223582     0.320700    Uiso  ? N
   N10        1.0     0.774083     0.095421     0.108680    Uiso  ? N
   N11        1.0     0.539654     0.214495     0.831710    Uiso  ? N
   N12        1.0     0.431537     0.088091     0.573925    Uiso  ? N
   N13        1.0     0.220258     0.536616     0.375161    Uiso  ? N
   N14        1.0     0.110180     0.428571     0.072277    Uiso  ? N
   N15        1.0     0.877711     0.537046     0.816051    Uiso  ? N
   N16        1.0     0.777286     0.425179     0.578971    Uiso  ? N
   N17        1.0     0.560117     0.534020     0.338356    Uiso  ? N
   N18        1.0     0.437662     0.420765     0.102536    Uiso  ? N
   N19        1.0     0.230522     0.555925     0.877074    Uiso  ? N
   N20        1.0     0.110579     0.425061     0.591916    Uiso  ? N
   N21        1.0     0.901472     0.512992     0.330294    Uiso  ? N
   N22        1.0     0.798530     0.422637     0.067845    Uiso  ? N
   N23        1.0     0.563182     0.533215     0.836846    Uiso  ? N
   N24        1.0     0.433665     0.447888     0.602182    Uiso  ? N
   N25        1.0     0.233624     0.846768     0.379481    Uiso  ? N
   N26        1.0     0.109536     0.748861     0.135366    Uiso  ? N
   N27        1.0     0.908595     0.863288     0.886233    Uiso  ? N
   N28        1.0     0.774042     0.761303     0.578584    Uiso  ? N
   N29        1.0     0.533556     0.883766     0.337605    Uiso  ? N
   N30        1.0     0.440270     0.759897     0.116364    Uiso  ? N
   N31        1.0     0.217942     0.877041     0.863700    Uiso  ? N
   N32        1.0     0.108848     0.760534     0.628120    Uiso  ? N
   N33        1.0     0.913179     0.858070     0.376162    Uiso  ? N
   N34        1.0     0.792683     0.749835     0.117604    Uiso  ? N
   N35        1.0     0.544368     0.885882     0.831156    Uiso  ? N
   N36        1.0     0.441681     0.761600     0.632068    Uiso  ? N
