
#======================================================================
# CRYSTAL DATA
#----------------------------------------------------------------------
data_VESTA_phase_1

_chemical_name_common                  'Mg   Al   Hf   N                      '
_cell_length_a                         9.735209
_cell_length_b                         9.745406
_cell_length_c                         10.155910
_cell_angle_alpha                      90.098091
_cell_angle_beta                       89.993088
_cell_angle_gamma                      60.100986
_cell_volume                           835.285364
_space_group_name_H-M_alt              'P 1'
_space_group_IT_number                 1

loop_
_space_group_symop_operation_xyz
   'x, y, z'

loop_
   _atom_site_label
   _atom_site_occupancy
   _atom_site_fract_x
   _atom_site_fract_y
   _atom_site_fract_z
   _atom_site_adp_type
   _atom_site_U_iso_or_equiv
   _atom_site_type_symbol
   Mg1        1.0     0.121116     0.088868     0.396516    Uiso  ? Mg
   Mg2        1.0     0.556439     0.543101     0.147521    Uiso  ? Mg
   Mg3        1.0     0.227320     0.867417     0.147815    Uiso  ? Mg
   Mg4        1.0     0.768759     0.759715     0.911249    Uiso  ? Mg
   Mg5        1.0     0.542713     0.875066     0.144341    Uiso  ? Mg
   Al1        1.0     0.221745     0.206114     0.151273    Uiso  ? Al
   Al2        1.0     0.897879     0.207870     0.651456    Uiso  ? Al
   Al3        1.0     0.430125     0.096313     0.396022    Uiso  ? Al
   Al4        1.0     0.535784     0.215361     0.151836    Uiso  ? Al
   Al5        1.0     0.117989     0.087918     0.900332    Uiso  ? Al
   Al6        1.0     0.216259     0.200305     0.647182    Uiso  ? Al
   Al7        1.0     0.898829     0.216709     0.147156    Uiso  ? Al
   Al8        1.0     0.438342     0.088233     0.903762    Uiso  ? Al
   Al9        1.0     0.119343     0.420895     0.400467    Uiso  ? Al
   Al10       1.0     0.221366     0.540842     0.151966    Uiso  ? Al
   Al11       1.0     0.773433     0.433017     0.899445    Uiso  ? Al
   Al12       1.0     0.885747     0.538726     0.646685    Uiso  ? Al
   Al13       1.0     0.437253     0.443235     0.394387    Uiso  ? Al
   Al14       1.0     0.218745     0.547985     0.645522    Uiso  ? Al
   Al15       1.0     0.775271     0.427992     0.402866    Uiso  ? Al
   Al16       1.0     0.893038     0.529049     0.151663    Uiso  ? Al
   Al17       1.0     0.441596     0.440544     0.906069    Uiso  ? Al
   Al18       1.0     0.555278     0.544371     0.648147    Uiso  ? Al
   Al19       1.0     0.126673     0.753722     0.402796    Uiso  ? Al
   Al20       1.0     0.897074     0.862209     0.651365    Uiso  ? Al
   Al21       1.0     0.438635     0.759338     0.404590    Uiso  ? Al
   Al22       1.0     0.119483     0.761775     0.899350    Uiso  ? Al
   Al23       1.0     0.220527     0.874541     0.648269    Uiso  ? Al
   Al24       1.0     0.904775     0.854895     0.148549    Uiso  ? Al
   Al25       1.0     0.441942     0.763912     0.897435    Uiso  ? Al
   Al26       1.0     0.551038     0.869538     0.650781    Uiso  ? Al
   Hf1        1.0     0.778320     0.094007     0.907484    Uiso  ? Hf
   Hf2        1.0     0.783532     0.097750     0.379244    Uiso  ? Hf
   Hf3        1.0     0.546612     0.210895     0.638581    Uiso  ? Hf
   Hf4        1.0     0.112049     0.429176     0.894453    Uiso  ? Hf
   Hf5        1.0     0.775701     0.756303     0.376732    Uiso  ? Hf
   N1         1.0     0.226269     0.214912     0.337131    Uiso  ? N
   N2         1.0     0.107335     0.107884     0.086298    Uiso  ? N
   N3         1.0     0.893691     0.210833     0.840916    Uiso  ? N
   N4         1.0     0.791073     0.088311     0.594159    Uiso  ? N
   N5         1.0     0.536961     0.216594     0.349595    Uiso  ? N
   N6         1.0     0.434189     0.110373     0.087712    Uiso  ? N
   N7         1.0     0.227617     0.193294     0.835947    Uiso  ? N
   N8         1.0     0.109131     0.094054     0.601567    Uiso  ? N
   N9         1.0     0.887363     0.223468     0.332963    Uiso  ? N
   N10        1.0     0.776588     0.093285     0.117730    Uiso  ? N
   N11        1.0     0.539609     0.214619     0.844122    Uiso  ? N
   N12        1.0     0.432002     0.089185     0.586433    Uiso  ? N
   N13        1.0     0.220348     0.538852     0.343435    Uiso  ? N
   N14        1.0     0.111179     0.428709     0.099033    Uiso  ? N
   N15        1.0     0.881138     0.534055     0.832451    Uiso  ? N
   N16        1.0     0.778445     0.425295     0.592521    Uiso  ? N
   N17        1.0     0.559491     0.539327     0.355969    Uiso  ? N
   N18        1.0     0.434954     0.423362     0.090859    Uiso  ? N
   N19        1.0     0.232198     0.547555     0.833299    Uiso  ? N
   N20        1.0     0.113230     0.427176     0.597415    Uiso  ? N
   N21        1.0     0.901796     0.514799     0.344713    Uiso  ? N
   N22        1.0     0.792056     0.422715     0.083539    Uiso  ? N
   N23        1.0     0.558086     0.534162     0.836935    Uiso  ? N
   N24        1.0     0.433477     0.446724     0.585376    Uiso  ? N
   N25        1.0     0.231003     0.855327     0.351982    Uiso  ? N
   N26        1.0     0.108064     0.748748     0.082709    Uiso  ? N
   N27        1.0     0.901719     0.866019     0.838909    Uiso  ? N
   N28        1.0     0.777701     0.761782     0.592327    Uiso  ? N
   N29        1.0     0.534879     0.881724     0.353021    Uiso  ? N
   N30        1.0     0.444418     0.758164     0.073807    Uiso  ? N
   N31        1.0     0.219810     0.873569     0.837842    Uiso  ? N
   N32        1.0     0.109668     0.761190     0.591938    Uiso  ? N
   N33        1.0     0.915007     0.859781     0.337875    Uiso  ? N
   N34        1.0     0.790159     0.750658     0.127099    Uiso  ? N
   N35        1.0     0.542537     0.882276     0.835876    Uiso  ? N
   N36        1.0     0.443694     0.760613     0.596972    Uiso  ? N
