
#======================================================================
# CRYSTAL DATA
#----------------------------------------------------------------------
data_VESTA_phase_1

_chemical_name_common                  'Mg   Al   Hf   N                      '
_cell_length_a                         9.791420
_cell_length_b                         9.812509
_cell_length_c                         10.212469
_cell_angle_alpha                      89.639191
_cell_angle_beta                       89.421852
_cell_angle_gamma                      60.032803
_cell_volume                           849.978627
_space_group_name_H-M_alt              'P 1'
_space_group_IT_number                 1

loop_
_space_group_symop_operation_xyz
   'x, y, z'

loop_
   _atom_site_label
   _atom_site_occupancy
   _atom_site_fract_x
   _atom_site_fract_y
   _atom_site_fract_z
   _atom_site_adp_type
   _atom_site_U_iso_or_equiv
   _atom_site_type_symbol
   Mg1        1.0     0.118951     0.088659     0.360966    Uiso  ? Mg
   Mg2        1.0     0.559487     0.540211     0.072739    Uiso  ? Mg
   Mg3        1.0     0.227063     0.864941     0.081454    Uiso  ? Mg
   Mg4        1.0     0.774803     0.764894     0.829759    Uiso  ? Mg
   Mg5        1.0     0.552161     0.877775     0.124953    Uiso  ? Mg
   Al1        1.0     0.224404     0.211779     0.137631    Uiso  ? Al
   Al2        1.0     0.892324     0.205843     0.566531    Uiso  ? Al
   Al3        1.0     0.428330     0.094901     0.390571    Uiso  ? Al
   Al4        1.0     0.537144     0.221506     0.061944    Uiso  ? Al
   Al5        1.0     0.123722     0.090254     0.893880    Uiso  ? Al
   Al6        1.0     0.213681     0.193339     0.637237    Uiso  ? Al
   Al7        1.0     0.893876     0.225539     0.070666    Uiso  ? Al
   Al8        1.0     0.436247     0.087283     0.884038    Uiso  ? Al
   Al9        1.0     0.119038     0.414851     0.397219    Uiso  ? Al
   Al10       1.0     0.226536     0.544111     0.076386    Uiso  ? Al
   Al11       1.0     0.767683     0.432047     0.809978    Uiso  ? Al
   Al12       1.0     0.887872     0.534832     0.621308    Uiso  ? Al
   Al13       1.0     0.435392     0.433511     0.320661    Uiso  ? Al
   Al14       1.0     0.219469     0.549457     0.572655    Uiso  ? Al
   Al15       1.0     0.770409     0.424196     0.324015    Uiso  ? Al
   Al16       1.0     0.900241     0.533230     0.143856    Uiso  ? Al
   Al17       1.0     0.441846     0.448516     0.819971    Uiso  ? Al
   Al18       1.0     0.551554     0.546393     0.565974    Uiso  ? Al
   Al19       1.0     0.122906     0.751108     0.322541    Uiso  ? Al
   Al20       1.0     0.901973     0.867998     0.576813    Uiso  ? Al
   Al21       1.0     0.436638     0.755228     0.315239    Uiso  ? Al
   Al22       1.0     0.123455     0.763971     0.821421    Uiso  ? Al
   Al23       1.0     0.225173     0.867666     0.567797    Uiso  ? Al
   Al24       1.0     0.905504     0.847271     0.072874    Uiso  ? Al
   Al25       1.0     0.439060     0.761865     0.819961    Uiso  ? Al
   Al26       1.0     0.547237     0.872613     0.628873    Uiso  ? Al
   Hf1        1.0     0.789464     0.091586     0.848391    Uiso  ? Hf
   Hf2        1.0     0.772158     0.096693     0.306929    Uiso  ? Hf
   Hf3        1.0     0.549979     0.209866     0.597225    Uiso  ? Hf
   Hf4        1.0     0.110275     0.429589     0.867724    Uiso  ? Hf
   Hf5        1.0     0.775131     0.757559     0.362029    Uiso  ? Hf
   N1         1.0     0.229934     0.217082     0.322651    Uiso  ? N
   N2         1.0     0.111283     0.111183     0.085333    Uiso  ? N
   N3         1.0     0.895252     0.224357     0.880291    Uiso  ? N
   N4         1.0     0.795303     0.083510     0.636132    Uiso  ? N
   N5         1.0     0.544038     0.212938     0.386454    Uiso  ? N
   N6         1.0     0.432364     0.109673     0.067217    Uiso  ? N
   N7         1.0     0.227647     0.191186     0.822752    Uiso  ? N
   N8         1.0     0.109139     0.091660     0.584060    Uiso  ? N
   N9         1.0     0.871767     0.214646     0.379592    Uiso  ? N
   N10        1.0     0.772582     0.100695     0.094603    Uiso  ? N
   N11        1.0     0.538511     0.220975     0.854791    Uiso  ? N
   N12        1.0     0.427172     0.089785     0.581084    Uiso  ? N
   N13        1.0     0.221629     0.538245     0.385855    Uiso  ? N
   N14        1.0     0.108079     0.430663     0.075940    Uiso  ? N
   N15        1.0     0.882732     0.534665     0.812360    Uiso  ? N
   N16        1.0     0.770649     0.421578     0.619530    Uiso  ? N
   N17        1.0     0.553597     0.534341     0.379509    Uiso  ? N
   N18        1.0     0.436043     0.419657     0.135417    Uiso  ? N
   N19        1.0     0.235141     0.553272     0.882827    Uiso  ? N
   N20        1.0     0.116342     0.420286     0.594606    Uiso  ? N
   N21        1.0     0.902203     0.513097     0.356278    Uiso  ? N
   N22        1.0     0.789905     0.423710     0.139043    Uiso  ? N
   N23        1.0     0.558479     0.541486     0.866857    Uiso  ? N
   N24        1.0     0.431001     0.450049     0.631819    Uiso  ? N
   N25        1.0     0.230989     0.847488     0.382968    Uiso  ? N
   N26        1.0     0.107324     0.749633     0.139992    Uiso  ? N
   N27        1.0     0.913637     0.853438     0.887843    Uiso  ? N
   N28        1.0     0.777391     0.763311     0.591588    Uiso  ? N
   N29        1.0     0.535072     0.882101     0.354516    Uiso  ? N
   N30        1.0     0.445529     0.755115     0.137589    Uiso  ? N
   N31        1.0     0.223457     0.873641     0.869603    Uiso  ? N
   N32        1.0     0.111811     0.759405     0.634079    Uiso  ? N
   N33        1.0     0.906740     0.874421     0.389077    Uiso  ? N
   N34        1.0     0.796178     0.754722     0.143870    Uiso  ? N
   N35        1.0     0.541331     0.884852     0.820524    Uiso  ? N
   N36        1.0     0.440937     0.756421     0.626247    Uiso  ? N
