
#======================================================================
# CRYSTAL DATA
#----------------------------------------------------------------------
data_VESTA_phase_1

_chemical_name_common                  'Mg   Al   Hf   N                      '
_cell_length_a                         9.794011
_cell_length_b                         9.809489
_cell_length_c                         10.192804
_cell_angle_alpha                      89.860031
_cell_angle_beta                       89.716095
_cell_angle_gamma                      60.077839
_cell_volume                           848.723218
_space_group_name_H-M_alt              'P 1'
_space_group_IT_number                 1

loop_
_space_group_symop_operation_xyz
   'x, y, z'

loop_
   _atom_site_label
   _atom_site_occupancy
   _atom_site_fract_x
   _atom_site_fract_y
   _atom_site_fract_z
   _atom_site_adp_type
   _atom_site_U_iso_or_equiv
   _atom_site_type_symbol
   Mg1        1.0     0.116930     0.090856     0.373429    Uiso  ? Mg
   Mg2        1.0     0.552264     0.540853     0.076664    Uiso  ? Mg
   Mg3        1.0     0.223981     0.867938     0.076764    Uiso  ? Mg
   Mg4        1.0     0.767972     0.755711     0.889527    Uiso  ? Mg
   Mg5        1.0     0.544913     0.881473     0.125409    Uiso  ? Mg
   Al1        1.0     0.222255     0.211848     0.135277    Uiso  ? Al
   Al2        1.0     0.901321     0.206471     0.638481    Uiso  ? Al
   Al3        1.0     0.429513     0.094610     0.389359    Uiso  ? Al
   Al4        1.0     0.534692     0.219813     0.076117    Uiso  ? Al
   Al5        1.0     0.117561     0.093231     0.888176    Uiso  ? Al
   Al6        1.0     0.215941     0.194182     0.633822    Uiso  ? Al
   Al7        1.0     0.900231     0.223756     0.126222    Uiso  ? Al
   Al8        1.0     0.435606     0.089266     0.881651    Uiso  ? Al
   Al9        1.0     0.117183     0.416653     0.390581    Uiso  ? Al
   Al10       1.0     0.226093     0.544670     0.076450    Uiso  ? Al
   Al11       1.0     0.778148     0.433239     0.884932    Uiso  ? Al
   Al12       1.0     0.882057     0.538538     0.631372    Uiso  ? Al
   Al13       1.0     0.435857     0.435891     0.323745    Uiso  ? Al
   Al14       1.0     0.217219     0.549725     0.570768    Uiso  ? Al
   Al15       1.0     0.779909     0.420998     0.386280    Uiso  ? Al
   Al16       1.0     0.898505     0.528900     0.136831    Uiso  ? Al
   Al17       1.0     0.441693     0.448715     0.817385    Uiso  ? Al
   Al18       1.0     0.549015     0.549598     0.569107    Uiso  ? Al
   Al19       1.0     0.125154     0.751726     0.322770    Uiso  ? Al
   Al20       1.0     0.899463     0.864594     0.575660    Uiso  ? Al
   Al21       1.0     0.436185     0.756733     0.314049    Uiso  ? Al
   Al22       1.0     0.121118     0.764868     0.820396    Uiso  ? Al
   Al23       1.0     0.225848     0.866777     0.570668    Uiso  ? Al
   Al24       1.0     0.907215     0.849623     0.074583    Uiso  ? Al
   Al25       1.0     0.439515     0.761149     0.820847    Uiso  ? Al
   Al26       1.0     0.555837     0.868295     0.635489    Uiso  ? Al
   Hf1        1.0     0.783372     0.091220     0.854851    Uiso  ? Hf
   Hf2        1.0     0.770501     0.095721     0.310820    Uiso  ? Hf
   Hf3        1.0     0.549239     0.209405     0.601399    Uiso  ? Hf
   Hf4        1.0     0.112388     0.429299     0.866973    Uiso  ? Hf
   Hf5        1.0     0.775978     0.755400     0.355273    Uiso  ? Hf
   N1         1.0     0.229987     0.215262     0.321560    Uiso  ? N
   N2         1.0     0.107739     0.114323     0.075253    Uiso  ? N
   N3         1.0     0.900701     0.215838     0.829430    Uiso  ? N
   N4         1.0     0.793995     0.080674     0.633009    Uiso  ? N
   N5         1.0     0.542660     0.216249     0.386499    Uiso  ? N
   N6         1.0     0.429346     0.111506     0.065557    Uiso  ? N
   N7         1.0     0.227365     0.191674     0.819737    Uiso  ? N
   N8         1.0     0.108083     0.092961     0.582321    Uiso  ? N
   N9         1.0     0.882177     0.219312     0.314224    Uiso  ? N
   N10        1.0     0.768011     0.098688     0.096858    Uiso  ? N
   N11        1.0     0.533983     0.220429     0.842492    Uiso  ? N
   N12        1.0     0.430252     0.084886     0.579317    Uiso  ? N
   N13        1.0     0.220992     0.538934     0.384014    Uiso  ? N
   N14        1.0     0.111119     0.430138     0.074496    Uiso  ? N
   N15        1.0     0.879549     0.536023     0.815579    Uiso  ? N
   N16        1.0     0.781826     0.420191     0.575948    Uiso  ? N
   N17        1.0     0.553340     0.537359     0.379082    Uiso  ? N
   N18        1.0     0.434528     0.421170     0.138305    Uiso  ? N
   N19        1.0     0.235587     0.553855     0.882059    Uiso  ? N
   N20        1.0     0.111401     0.422669     0.590553    Uiso  ? N
   N21        1.0     0.904119     0.510470     0.329139    Uiso  ? N
   N22        1.0     0.795927     0.427495     0.069737    Uiso  ? N
   N23        1.0     0.558339     0.540541     0.864241    Uiso  ? N
   N24        1.0     0.429895     0.452261     0.628840    Uiso  ? N
   N25        1.0     0.232700     0.848165     0.385295    Uiso  ? N
   N26        1.0     0.108071     0.750528     0.140325    Uiso  ? N
   N27        1.0     0.913440     0.854134     0.888850    Uiso  ? N
   N28        1.0     0.776739     0.757104     0.577005    Uiso  ? N
   N29        1.0     0.537788     0.885081     0.342529    Uiso  ? N
   N30        1.0     0.440735     0.756551     0.135947    Uiso  ? N
   N31        1.0     0.222765     0.874539     0.865664    Uiso  ? N
   N32        1.0     0.109863     0.759365     0.632801    Uiso  ? N
   N33        1.0     0.908652     0.870491     0.385065    Uiso  ? N
   N34        1.0     0.791894     0.752781     0.121424    Uiso  ? N
   N35        1.0     0.545592     0.882523     0.825249    Uiso  ? N
   N36        1.0     0.442525     0.758461     0.627691    Uiso  ? N
