
#======================================================================
# CRYSTAL DATA
#----------------------------------------------------------------------
data_VESTA_phase_1

_chemical_name_common                  'Mg   Al   Hf   N                      '
_cell_length_a                         9.843257
_cell_length_b                         9.865286
_cell_length_c                         10.051584
_cell_angle_alpha                      89.871796
_cell_angle_beta                       89.652191
_cell_angle_gamma                      59.958927
_cell_volume                           844.939404
_space_group_name_H-M_alt              'P 1'
_space_group_IT_number                 1

loop_
_space_group_symop_operation_xyz
   'x, y, z'

loop_
   _atom_site_label
   _atom_site_occupancy
   _atom_site_fract_x
   _atom_site_fract_y
   _atom_site_fract_z
   _atom_site_adp_type
   _atom_site_U_iso_or_equiv
   _atom_site_type_symbol
   Mg1        1.0     0.120972     0.090630     0.371666    Uiso  ? Mg
   Mg2        1.0     0.559223     0.532923     0.094625    Uiso  ? Mg
   Mg3        1.0     0.221186     0.868798     0.076861    Uiso  ? Mg
   Mg4        1.0     0.769486     0.758851     0.887348    Uiso  ? Mg
   Mg5        1.0     0.544900     0.879941     0.117525    Uiso  ? Mg
   Al1        1.0     0.220400     0.212683     0.133006    Uiso  ? Al
   Al2        1.0     0.900527     0.204258     0.632901    Uiso  ? Al
   Al3        1.0     0.428088     0.091933     0.383856    Uiso  ? Al
   Al4        1.0     0.534145     0.209456     0.142642    Uiso  ? Al
   Al5        1.0     0.115453     0.093159     0.885338    Uiso  ? Al
   Al6        1.0     0.217317     0.193236     0.632239    Uiso  ? Al
   Al7        1.0     0.901024     0.222749     0.133505    Uiso  ? Al
   Al8        1.0     0.438294     0.093539     0.884752    Uiso  ? Al
   Al9        1.0     0.116204     0.417955     0.389344    Uiso  ? Al
   Al10       1.0     0.227382     0.541543     0.073492    Uiso  ? Al
   Al11       1.0     0.778033     0.431883     0.880909    Uiso  ? Al
   Al12       1.0     0.881810     0.540858     0.630215    Uiso  ? Al
   Al13       1.0     0.433837     0.442400     0.324549    Uiso  ? Al
   Al14       1.0     0.217036     0.550814     0.570835    Uiso  ? Al
   Al15       1.0     0.775981     0.426865     0.387922    Uiso  ? Al
   Al16       1.0     0.899014     0.526962     0.133530    Uiso  ? Al
   Al17       1.0     0.440760     0.444025     0.818070    Uiso  ? Al
   Al18       1.0     0.555643     0.547609     0.600306    Uiso  ? Al
   Al19       1.0     0.127966     0.747135     0.319762    Uiso  ? Al
   Al20       1.0     0.900553     0.861757     0.570734    Uiso  ? Al
   Al21       1.0     0.436564     0.756081     0.309369    Uiso  ? Al
   Al22       1.0     0.117077     0.769366     0.820581    Uiso  ? Al
   Al23       1.0     0.227214     0.866675     0.569538    Uiso  ? Al
   Al24       1.0     0.906845     0.849345     0.082338    Uiso  ? Al
   Al25       1.0     0.437073     0.765720     0.827752    Uiso  ? Al
   Al26       1.0     0.553504     0.871030     0.636637    Uiso  ? Al
   Hf1        1.0     0.772169     0.104161     0.893318    Uiso  ? Hf
   Hf2        1.0     0.785504     0.095182     0.349899    Uiso  ? Hf
   Hf3        1.0     0.548092     0.208725     0.605860    Uiso  ? Hf
   Hf4        1.0     0.112303     0.429143     0.861511    Uiso  ? Hf
   Hf5        1.0     0.772331     0.755498     0.350678    Uiso  ? Hf
   N1         1.0     0.227529     0.216936     0.321326    Uiso  ? N
   N2         1.0     0.106240     0.114648     0.075398    Uiso  ? N
   N3         1.0     0.895488     0.210986     0.825580    Uiso  ? N
   N4         1.0     0.792972     0.090191     0.579116    Uiso  ? N
   N5         1.0     0.538806     0.210291     0.354167    Uiso  ? N
   N6         1.0     0.432342     0.114367     0.070833    Uiso  ? N
   N7         1.0     0.228710     0.190653     0.821267    Uiso  ? N
   N8         1.0     0.110245     0.092064     0.583058    Uiso  ? N
   N9         1.0     0.887866     0.224155     0.319445    Uiso  ? N
   N10        1.0     0.771144     0.097054     0.111074    Uiso  ? N
   N11        1.0     0.539160     0.212828     0.822094    Uiso  ? N
   N12        1.0     0.430611     0.086084     0.574859    Uiso  ? N
   N13        1.0     0.221526     0.537304     0.383021    Uiso  ? N
   N14        1.0     0.110949     0.429185     0.072302    Uiso  ? N
   N15        1.0     0.878646     0.537124     0.816962    Uiso  ? N
   N16        1.0     0.782958     0.422606     0.578868    Uiso  ? N
   N17        1.0     0.555489     0.537178     0.370190    Uiso  ? N
   N18        1.0     0.432568     0.423156     0.135596    Uiso  ? N
   N19        1.0     0.233436     0.554595     0.877689    Uiso  ? N
   N20        1.0     0.111313     0.424099     0.593032    Uiso  ? N
   N21        1.0     0.903102     0.512457     0.329285    Uiso  ? N
   N22        1.0     0.796464     0.423701     0.067862    Uiso  ? N
   N23        1.0     0.562554     0.536513     0.841129    Uiso  ? N
   N24        1.0     0.429280     0.450601     0.623955    Uiso  ? N
   N25        1.0     0.231845     0.847971     0.380532    Uiso  ? N
   N26        1.0     0.111073     0.746488     0.135650    Uiso  ? N
   N27        1.0     0.906757     0.866312     0.888325    Uiso  ? N
   N28        1.0     0.774625     0.760521     0.578338    Uiso  ? N
   N29        1.0     0.534017     0.883392     0.338379    Uiso  ? N
   N30        1.0     0.441349     0.755965     0.125293    Uiso  ? N
   N31        1.0     0.220056     0.875811     0.865006    Uiso  ? N
   N32        1.0     0.108163     0.761577     0.630953    Uiso  ? N
   N33        1.0     0.914796     0.855839     0.376527    Uiso  ? N
   N34        1.0     0.792089     0.750148     0.117967    Uiso  ? N
   N35        1.0     0.543900     0.885101     0.830378    Uiso  ? N
   N36        1.0     0.440387     0.763585     0.629425    Uiso  ? N
