
#======================================================================
# CRYSTAL DATA
#----------------------------------------------------------------------
data_VESTA_phase_1

_chemical_name_common                  'Mg   Al   Hf   N                      '
_cell_length_a                         9.838359
_cell_length_b                         9.846070
_cell_length_c                         10.067554
_cell_angle_alpha                      89.908714
_cell_angle_beta                       89.484520
_cell_angle_gamma                      60.038689
_cell_volume                           844.868932
_space_group_name_H-M_alt              'P 1'
_space_group_IT_number                 1

loop_
_space_group_symop_operation_xyz
   'x, y, z'

loop_
   _atom_site_label
   _atom_site_occupancy
   _atom_site_fract_x
   _atom_site_fract_y
   _atom_site_fract_z
   _atom_site_adp_type
   _atom_site_U_iso_or_equiv
   _atom_site_type_symbol
   Mg1        1.0     0.120638     0.089265     0.372117    Uiso  ? Mg
   Mg2        1.0     0.566039     0.529582     0.124519    Uiso  ? Mg
   Mg3        1.0     0.220661     0.869461     0.074689    Uiso  ? Mg
   Mg4        1.0     0.769388     0.758995     0.887160    Uiso  ? Mg
   Mg5        1.0     0.546290     0.881602     0.117099    Uiso  ? Mg
   Al1        1.0     0.220369     0.211550     0.133242    Uiso  ? Al
   Al2        1.0     0.899932     0.204404     0.631894    Uiso  ? Al
   Al3        1.0     0.428488     0.095202     0.381486    Uiso  ? Al
   Al4        1.0     0.530469     0.216987     0.141203    Uiso  ? Al
   Al5        1.0     0.115206     0.093840     0.884282    Uiso  ? Al
   Al6        1.0     0.218028     0.192790     0.630739    Uiso  ? Al
   Al7        1.0     0.901299     0.221470     0.133674    Uiso  ? Al
   Al8        1.0     0.437060     0.093531     0.887327    Uiso  ? Al
   Al9        1.0     0.114590     0.417594     0.387104    Uiso  ? Al
   Al10       1.0     0.221800     0.543554     0.074362    Uiso  ? Al
   Al11       1.0     0.777058     0.431705     0.882517    Uiso  ? Al
   Al12       1.0     0.879797     0.541276     0.629174    Uiso  ? Al
   Al13       1.0     0.440445     0.442756     0.379560    Uiso  ? Al
   Al14       1.0     0.213547     0.550999     0.569961    Uiso  ? Al
   Al15       1.0     0.773478     0.428171     0.387528    Uiso  ? Al
   Al16       1.0     0.898706     0.526736     0.133354    Uiso  ? Al
   Al17       1.0     0.448097     0.435302     0.891056    Uiso  ? Al
   Al18       1.0     0.557218     0.541337     0.634515    Uiso  ? Al
   Al19       1.0     0.127637     0.747524     0.318435    Uiso  ? Al
   Al20       1.0     0.899513     0.862870     0.569371    Uiso  ? Al
   Al21       1.0     0.435617     0.759276     0.304113    Uiso  ? Al
   Al22       1.0     0.117373     0.768427     0.817893    Uiso  ? Al
   Al23       1.0     0.229687     0.864409     0.569108    Uiso  ? Al
   Al24       1.0     0.906518     0.850563     0.082388    Uiso  ? Al
   Al25       1.0     0.435658     0.767621     0.832569    Uiso  ? Al
   Al26       1.0     0.552994     0.870564     0.636086    Uiso  ? Al
   Hf1        1.0     0.775161     0.102504     0.894961    Uiso  ? Hf
   Hf2        1.0     0.781202     0.097899     0.348969    Uiso  ? Hf
   Hf3        1.0     0.547228     0.210215     0.619410    Uiso  ? Hf
   Hf4        1.0     0.110762     0.429859     0.860084    Uiso  ? Hf
   Hf5        1.0     0.771980     0.755790     0.350551    Uiso  ? Hf
   N1         1.0     0.226346     0.215901     0.321274    Uiso  ? N
   N2         1.0     0.105958     0.114907     0.074184    Uiso  ? N
   N3         1.0     0.896022     0.211057     0.824566    Uiso  ? N
   N4         1.0     0.789493     0.091638     0.579186    Uiso  ? N
   N5         1.0     0.533774     0.217237     0.339344    Uiso  ? N
   N6         1.0     0.431883     0.115148     0.072205    Uiso  ? N
   N7         1.0     0.229641     0.190594     0.819851    Uiso  ? N
   N8         1.0     0.110547     0.091123     0.582733    Uiso  ? N
   N9         1.0     0.887962     0.223143     0.320031    Uiso  ? N
   N10        1.0     0.774603     0.095695     0.110691    Uiso  ? N
   N11        1.0     0.538872     0.215265     0.827621    Uiso  ? N
   N12        1.0     0.432414     0.087511     0.572974    Uiso  ? N
   N13        1.0     0.217623     0.537912     0.377186    Uiso  ? N
   N14        1.0     0.110744     0.428667     0.072333    Uiso  ? N
   N15        1.0     0.876463     0.537413     0.815850    Uiso  ? N
   N16        1.0     0.778237     0.424171     0.578189    Uiso  ? N
   N17        1.0     0.561936     0.534406     0.339022    Uiso  ? N
   N18        1.0     0.442142     0.418538     0.079668    Uiso  ? N
   N19        1.0     0.229389     0.555660     0.871038    Uiso  ? N
   N20        1.0     0.109988     0.424000     0.591752    Uiso  ? N
   N21        1.0     0.902130     0.512433     0.328831    Uiso  ? N
   N22        1.0     0.796728     0.422934     0.067184    Uiso  ? N
   N23        1.0     0.561962     0.530912     0.830552    Uiso  ? N
   N24        1.0     0.437395     0.446294     0.577725    Uiso  ? N
   N25        1.0     0.234309     0.845621     0.380053    Uiso  ? N
   N26        1.0     0.110809     0.747931     0.134860    Uiso  ? N
   N27        1.0     0.907285     0.865448     0.887511    Uiso  ? N
   N28        1.0     0.774277     0.760671     0.577477    Uiso  ? N
   N29        1.0     0.533823     0.885045     0.336950    Uiso  ? N
   N30        1.0     0.441738     0.758280     0.117810    Uiso  ? N
   N31        1.0     0.218379     0.876481     0.863915    Uiso  ? N
   N32        1.0     0.107749     0.761872     0.628605    Uiso  ? N
   N33        1.0     0.913467     0.858053     0.375473    Uiso  ? N
   N34        1.0     0.792892     0.749857     0.117717    Uiso  ? N
   N35        1.0     0.544052     0.885849     0.830085    Uiso  ? N
   N36        1.0     0.441395     0.761080     0.631350    Uiso  ? N
