
#======================================================================
# CRYSTAL DATA
#----------------------------------------------------------------------
data_VESTA_phase_1

_chemical_name_common                  'Mg   Al   Hf   N                      '
_cell_length_a                         9.768497
_cell_length_b                         9.788445
_cell_length_c                         10.259470
_cell_angle_alpha                      89.765495
_cell_angle_beta                       89.543373
_cell_angle_gamma                      60.271595
_cell_volume                           851.854308
_space_group_name_H-M_alt              'P 1'
_space_group_IT_number                 1

loop_
_space_group_symop_operation_xyz
   'x, y, z'

loop_
   _atom_site_label
   _atom_site_occupancy
   _atom_site_fract_x
   _atom_site_fract_y
   _atom_site_fract_z
   _atom_site_adp_type
   _atom_site_U_iso_or_equiv
   _atom_site_type_symbol
   Mg1        1.0     0.113972     0.090911     0.373693    Uiso  ? Mg
   Mg2        1.0     0.556074     0.543532     0.069834    Uiso  ? Mg
   Mg3        1.0     0.226010     0.867813     0.076976    Uiso  ? Mg
   Mg4        1.0     0.764887     0.754579     0.896214    Uiso  ? Mg
   Mg5        1.0     0.545003     0.884668     0.131545    Uiso  ? Mg
   Al1        1.0     0.223180     0.211122     0.138161    Uiso  ? Al
   Al2        1.0     0.899059     0.201832     0.620120    Uiso  ? Al
   Al3        1.0     0.428056     0.095270     0.391077    Uiso  ? Al
   Al4        1.0     0.533996     0.224608     0.059515    Uiso  ? Al
   Al5        1.0     0.119986     0.092188     0.888137    Uiso  ? Al
   Al6        1.0     0.215701     0.195667     0.635719    Uiso  ? Al
   Al7        1.0     0.895306     0.218100     0.097084    Uiso  ? Al
   Al8        1.0     0.434772     0.088009     0.883933    Uiso  ? Al
   Al9        1.0     0.117151     0.415999     0.392720    Uiso  ? Al
   Al10       1.0     0.228259     0.545139     0.078084    Uiso  ? Al
   Al11       1.0     0.765619     0.435459     0.814223    Uiso  ? Al
   Al12       1.0     0.886629     0.541367     0.631308    Uiso  ? Al
   Al13       1.0     0.436683     0.434192     0.320748    Uiso  ? Al
   Al14       1.0     0.219446     0.548393     0.570462    Uiso  ? Al
   Al15       1.0     0.769481     0.425656     0.313531    Uiso  ? Al
   Al16       1.0     0.901879     0.532944     0.142487    Uiso  ? Al
   Al17       1.0     0.440784     0.448940     0.818494    Uiso  ? Al
   Al18       1.0     0.554788     0.546395     0.564822    Uiso  ? Al
   Al19       1.0     0.124807     0.752188     0.323878    Uiso  ? Al
   Al20       1.0     0.901625     0.864422     0.575713    Uiso  ? Al
   Al21       1.0     0.435883     0.756954     0.314663    Uiso  ? Al
   Al22       1.0     0.122008     0.762707     0.820374    Uiso  ? Al
   Al23       1.0     0.228410     0.864745     0.570307    Uiso  ? Al
   Al24       1.0     0.910101     0.848920     0.073217    Uiso  ? Al
   Al25       1.0     0.438199     0.762713     0.818471    Uiso  ? Al
   Al26       1.0     0.556407     0.869068     0.635982    Uiso  ? Al
   Hf1        1.0     0.786499     0.086285     0.852773    Uiso  ? Hf
   Hf2        1.0     0.768009     0.093684     0.304339    Uiso  ? Hf
   Hf3        1.0     0.551123     0.210103     0.595867    Uiso  ? Hf
   Hf4        1.0     0.110768     0.429170     0.873064    Uiso  ? Hf
   Hf5        1.0     0.775823     0.756120     0.361208    Uiso  ? Hf
   N1         1.0     0.229032     0.214774     0.323087    Uiso  ? N
   N2         1.0     0.109322     0.114571     0.074673    Uiso  ? N
   N3         1.0     0.898977     0.216015     0.848182    Uiso  ? N
   N4         1.0     0.794514     0.078524     0.637325    Uiso  ? N
   N5         1.0     0.541865     0.216489     0.387950    Uiso  ? N
   N6         1.0     0.429546     0.112024     0.066359    Uiso  ? N
   N7         1.0     0.227836     0.192806     0.819944    Uiso  ? N
   N8         1.0     0.110338     0.091074     0.585062    Uiso  ? N
   N9         1.0     0.877828     0.210663     0.338466    Uiso  ? N
   N10        1.0     0.772187     0.099806     0.090237    Uiso  ? N
   N11        1.0     0.535583     0.223262     0.856177    Uiso  ? N
   N12        1.0     0.430381     0.086482     0.581015    Uiso  ? N
   N13        1.0     0.222855     0.538211     0.384497    Uiso  ? N
   N14        1.0     0.111216     0.430311     0.078250    Uiso  ? N
   N15        1.0     0.881112     0.539335     0.818147    Uiso  ? N
   N16        1.0     0.771972     0.424270     0.621066    Uiso  ? N
   N17        1.0     0.556669     0.535405     0.378475    Uiso  ? N
   N18        1.0     0.437505     0.420266     0.136299    Uiso  ? N
   N19        1.0     0.235613     0.552996     0.884194    Uiso  ? N
   N20        1.0     0.112174     0.422049     0.589814    Uiso  ? N
   N21        1.0     0.905313     0.513929     0.336383    Uiso  ? N
   N22        1.0     0.786573     0.429266     0.125597    Uiso  ? N
   N23        1.0     0.556152     0.543710     0.866334    Uiso  ? N
   N24        1.0     0.431230     0.450712     0.631049    Uiso  ? N
   N25        1.0     0.233417     0.847678     0.386741    Uiso  ? N
   N26        1.0     0.109245     0.750779     0.142110    Uiso  ? N
   N27        1.0     0.915712     0.849262     0.889649    Uiso  ? N
   N28        1.0     0.777208     0.758592     0.578566    Uiso  ? N
   N29        1.0     0.537172     0.885668     0.345520    Uiso  ? N
   N30        1.0     0.441939     0.757114     0.137739    Uiso  ? N
   N31        1.0     0.223105     0.873788     0.866054    Uiso  ? N
   N32        1.0     0.111704     0.757779     0.633513    Uiso  ? N
   N33        1.0     0.908404     0.871904     0.387038    Uiso  ? N
   N34        1.0     0.791849     0.755427     0.123346    Uiso  ? N
   N35        1.0     0.545654     0.883217     0.823932    Uiso  ? N
   N36        1.0     0.444778     0.756361     0.626684    Uiso  ? N
