
#======================================================================
# CRYSTAL DATA
#----------------------------------------------------------------------
data_VESTA_phase_1

_chemical_name_common                  'Mg   Al   Hf   N                      '
_cell_length_a                         9.767227
_cell_length_b                         9.781280
_cell_length_c                         10.288359
_cell_angle_alpha                      89.547264
_cell_angle_beta                       89.320984
_cell_angle_gamma                      60.110077
_cell_volume                           852.104178
_space_group_name_H-M_alt              'P 1'
_space_group_IT_number                 1

loop_
_space_group_symop_operation_xyz
   'x, y, z'

loop_
   _atom_site_label
   _atom_site_occupancy
   _atom_site_fract_x
   _atom_site_fract_y
   _atom_site_fract_z
   _atom_site_adp_type
   _atom_site_U_iso_or_equiv
   _atom_site_type_symbol
   Mg1        1.0     0.119484     0.088695     0.365230    Uiso  ? Mg
   Mg2        1.0     0.558985     0.540932     0.071090    Uiso  ? Mg
   Mg3        1.0     0.227091     0.865534     0.079378    Uiso  ? Mg
   Mg4        1.0     0.769856     0.761033     0.860114    Uiso  ? Mg
   Mg5        1.0     0.549288     0.880391     0.129059    Uiso  ? Mg
   Al1        1.0     0.224992     0.210196     0.138217    Uiso  ? Al
   Al2        1.0     0.892330     0.207182     0.566928    Uiso  ? Al
   Al3        1.0     0.428621     0.094481     0.391121    Uiso  ? Al
   Al4        1.0     0.538524     0.220987     0.061478    Uiso  ? Al
   Al5        1.0     0.123809     0.090209     0.891828    Uiso  ? Al
   Al6        1.0     0.213017     0.195423     0.636671    Uiso  ? Al
   Al7        1.0     0.893353     0.225012     0.067901    Uiso  ? Al
   Al8        1.0     0.436170     0.088022     0.883772    Uiso  ? Al
   Al9        1.0     0.118111     0.415322     0.394366    Uiso  ? Al
   Al10       1.0     0.227438     0.544496     0.078087    Uiso  ? Al
   Al11       1.0     0.767077     0.431827     0.809575    Uiso  ? Al
   Al12       1.0     0.887642     0.538485     0.627507    Uiso  ? Al
   Al13       1.0     0.436100     0.433608     0.319952    Uiso  ? Al
   Al14       1.0     0.218640     0.548556     0.570951    Uiso  ? Al
   Al15       1.0     0.770233     0.423953     0.320957    Uiso  ? Al
   Al16       1.0     0.900821     0.532270     0.148072    Uiso  ? Al
   Al17       1.0     0.441384     0.447661     0.819193    Uiso  ? Al
   Al18       1.0     0.552267     0.546715     0.565503    Uiso  ? Al
   Al19       1.0     0.123609     0.751656     0.322486    Uiso  ? Al
   Al20       1.0     0.901380     0.866433     0.575956    Uiso  ? Al
   Al21       1.0     0.436200     0.755273     0.315127    Uiso  ? Al
   Al22       1.0     0.122586     0.762550     0.820814    Uiso  ? Al
   Al23       1.0     0.225536     0.867096     0.568522    Uiso  ? Al
   Al24       1.0     0.905921     0.850380     0.074034    Uiso  ? Al
   Al25       1.0     0.438075     0.761808     0.817787    Uiso  ? Al
   Al26       1.0     0.551243     0.871046     0.631356    Uiso  ? Al
   Hf1        1.0     0.789763     0.089941     0.845516    Uiso  ? Hf
   Hf2        1.0     0.773213     0.097848     0.306435    Uiso  ? Hf
   Hf3        1.0     0.550753     0.209904     0.594717    Uiso  ? Hf
   Hf4        1.0     0.109622     0.428773     0.874595    Uiso  ? Hf
   Hf5        1.0     0.775101     0.758004     0.360842    Uiso  ? Hf
   N1         1.0     0.230759     0.215773     0.321965    Uiso  ? N
   N2         1.0     0.111331     0.111902     0.081380    Uiso  ? N
   N3         1.0     0.894834     0.223876     0.878713    Uiso  ? N
   N4         1.0     0.795700     0.082587     0.635605    Uiso  ? N
   N5         1.0     0.544906     0.212830     0.386187    Uiso  ? N
   N6         1.0     0.431851     0.110077     0.065633    Uiso  ? N
   N7         1.0     0.227748     0.192599     0.821070    Uiso  ? N
   N8         1.0     0.109413     0.091613     0.584743    Uiso  ? N
   N9         1.0     0.872087     0.215974     0.381293    Uiso  ? N
   N10        1.0     0.773748     0.100079     0.095278    Uiso  ? N
   N11        1.0     0.539370     0.220695     0.855720    Uiso  ? N
   N12        1.0     0.428056     0.088980     0.580503    Uiso  ? N
   N13        1.0     0.222509     0.538193     0.385112    Uiso  ? N
   N14        1.0     0.108835     0.430469     0.079159    Uiso  ? N
   N15        1.0     0.882654     0.535696     0.814350    Uiso  ? N
   N16        1.0     0.771150     0.423150     0.620476    Uiso  ? N
   N17        1.0     0.554516     0.534452     0.379991    Uiso  ? N
   N18        1.0     0.437183     0.418983     0.136021    Uiso  ? N
   N19        1.0     0.235069     0.552071     0.884441    Uiso  ? N
   N20        1.0     0.113045     0.421078     0.589345    Uiso  ? N
   N21        1.0     0.904342     0.513566     0.343380    Uiso  ? N
   N22        1.0     0.788680     0.422545     0.137077    Uiso  ? N
   N23        1.0     0.557574     0.541947     0.866241    Uiso  ? N
   N24        1.0     0.430228     0.450008     0.631969    Uiso  ? N
   N25        1.0     0.231542     0.847409     0.384918    Uiso  ? N
   N26        1.0     0.107703     0.750459     0.141253    Uiso  ? N
   N27        1.0     0.913969     0.852889     0.889744    Uiso  ? N
   N28        1.0     0.777109     0.761043     0.583976    Uiso  ? N
   N29        1.0     0.535213     0.882990     0.350685    Uiso  ? N
   N30        1.0     0.444256     0.754941     0.138678    Uiso  ? N
   N31        1.0     0.223024     0.872927     0.868375    Uiso  ? N
   N32        1.0     0.111233     0.758226     0.634304    Uiso  ? N
   N33        1.0     0.906845     0.875336     0.388324    Uiso  ? N
   N34        1.0     0.794364     0.755717     0.137741    Uiso  ? N
   N35        1.0     0.541644     0.884875     0.820084    Uiso  ? N
   N36        1.0     0.441648     0.756710     0.626230    Uiso  ? N
