
#======================================================================
# CRYSTAL DATA
#----------------------------------------------------------------------
data_VESTA_phase_1

_chemical_name_common                  'Mg   Al   Hf   N                      '
_cell_length_a                         9.780047
_cell_length_b                         9.806137
_cell_length_c                         10.218773
_cell_angle_alpha                      89.871346
_cell_angle_beta                       89.649994
_cell_angle_gamma                      60.198311
_cell_volume                           850.402264
_space_group_name_H-M_alt              'P 1'
_space_group_IT_number                 1

loop_
_space_group_symop_operation_xyz
   'x, y, z'

loop_
   _atom_site_label
   _atom_site_occupancy
   _atom_site_fract_x
   _atom_site_fract_y
   _atom_site_fract_z
   _atom_site_adp_type
   _atom_site_U_iso_or_equiv
   _atom_site_type_symbol
   Mg1        1.0     0.110216     0.093438     0.376147    Uiso  ? Mg
   Mg2        1.0     0.549811     0.545410     0.073131    Uiso  ? Mg
   Mg3        1.0     0.225592     0.868377     0.077059    Uiso  ? Mg
   Mg4        1.0     0.765992     0.756482     0.894117    Uiso  ? Mg
   Mg5        1.0     0.545960     0.884119     0.130400    Uiso  ? Mg
   Al1        1.0     0.223548     0.211102     0.137454    Uiso  ? Al
   Al2        1.0     0.900018     0.206265     0.640620    Uiso  ? Al
   Al3        1.0     0.427723     0.095641     0.391493    Uiso  ? Al
   Al4        1.0     0.532564     0.224830     0.058534    Uiso  ? Al
   Al5        1.0     0.120267     0.092215     0.888800    Uiso  ? Al
   Al6        1.0     0.215449     0.194885     0.634672    Uiso  ? Al
   Al7        1.0     0.901167     0.214077     0.117979    Uiso  ? Al
   Al8        1.0     0.434755     0.087172     0.883338    Uiso  ? Al
   Al9        1.0     0.115390     0.416219     0.392937    Uiso  ? Al
   Al10       1.0     0.227823     0.545239     0.077422    Uiso  ? Al
   Al11       1.0     0.770886     0.434769     0.849669    Uiso  ? Al
   Al12       1.0     0.882048     0.538085     0.634812    Uiso  ? Al
   Al13       1.0     0.434823     0.434180     0.321455    Uiso  ? Al
   Al14       1.0     0.218864     0.548609     0.571104    Uiso  ? Al
   Al15       1.0     0.767208     0.428746     0.311764    Uiso  ? Al
   Al16       1.0     0.902611     0.533047     0.136352    Uiso  ? Al
   Al17       1.0     0.442060     0.449765     0.817795    Uiso  ? Al
   Al18       1.0     0.558400     0.544446     0.565333    Uiso  ? Al
   Al19       1.0     0.123957     0.752885     0.324275    Uiso  ? Al
   Al20       1.0     0.900511     0.865101     0.577221    Uiso  ? Al
   Al21       1.0     0.434387     0.759072     0.315350    Uiso  ? Al
   Al22       1.0     0.123103     0.763308     0.819735    Uiso  ? Al
   Al23       1.0     0.227219     0.865938     0.571014    Uiso  ? Al
   Al24       1.0     0.910395     0.848114     0.072589    Uiso  ? Al
   Al25       1.0     0.439184     0.762297     0.818368    Uiso  ? Al
   Al26       1.0     0.556533     0.868346     0.634942    Uiso  ? Al
   Hf1        1.0     0.786520     0.086088     0.855744    Uiso  ? Hf
   Hf2        1.0     0.764703     0.092399     0.302311    Uiso  ? Hf
   Hf3        1.0     0.551756     0.209817     0.598336    Uiso  ? Hf
   Hf4        1.0     0.114846     0.428811     0.869226    Uiso  ? Hf
   Hf5        1.0     0.776836     0.754018     0.361543    Uiso  ? Hf
   N1         1.0     0.228185     0.214747     0.323691    Uiso  ? N
   N2         1.0     0.110096     0.114272     0.073941    Uiso  ? N
   N3         1.0     0.902465     0.212818     0.837614    Uiso  ? N
   N4         1.0     0.794209     0.078671     0.638773    Uiso  ? N
   N5         1.0     0.541603     0.217234     0.388444    Uiso  ? N
   N6         1.0     0.429818     0.111488     0.066448    Uiso  ? N
   N7         1.0     0.228211     0.191803     0.819702    Uiso  ? N
   N8         1.0     0.107089     0.092866     0.584724    Uiso  ? N
   N9         1.0     0.880256     0.210171     0.310611    Uiso  ? N
   N10        1.0     0.770487     0.097235     0.088644    Uiso  ? N
   N11        1.0     0.534867     0.223707     0.855379    Uiso  ? N
   N12        1.0     0.430637     0.086299     0.581266    Uiso  ? N
   N13        1.0     0.220632     0.538729     0.384480    Uiso  ? N
   N14        1.0     0.113495     0.429387     0.075563    Uiso  ? N
   N15        1.0     0.882293     0.538202     0.822819    Uiso  ? N
   N16        1.0     0.773730     0.423611     0.613410    Uiso  ? N
   N17        1.0     0.555484     0.535626     0.375778    Uiso  ? N
   N18        1.0     0.436527     0.419702     0.136641    Uiso  ? N
   N19        1.0     0.237126     0.554191     0.883396    Uiso  ? N
   N20        1.0     0.110742     0.422813     0.591920    Uiso  ? N
   N21        1.0     0.905059     0.511890     0.329905    Uiso  ? N
   N22        1.0     0.788005     0.430050     0.106522    Uiso  ? N
   N23        1.0     0.554997     0.544681     0.869141    Uiso  ? N
   N24        1.0     0.431654     0.451138     0.630258    Uiso  ? N
   N25        1.0     0.231700     0.849492     0.386528    Uiso  ? N
   N26        1.0     0.109360     0.750841     0.141760    Uiso  ? N
   N27        1.0     0.916904     0.849094     0.888274    Uiso  ? N
   N28        1.0     0.778418     0.756179     0.579445    Uiso  ? N
   N29        1.0     0.538708     0.885769     0.345855    Uiso  ? N
   N30        1.0     0.441091     0.759208     0.138218    Uiso  ? N
   N31        1.0     0.223912     0.874110     0.865440    Uiso  ? N
   N32        1.0     0.111530     0.758256     0.632803    Uiso  ? N
   N33        1.0     0.906644     0.872867     0.386675    Uiso  ? N
   N34        1.0     0.792150     0.755332     0.121515    Uiso  ? N
   N35        1.0     0.546247     0.882643     0.823767    Uiso  ? N
   N36        1.0     0.444905     0.755943     0.625826    Uiso  ? N
