
#======================================================================
# CRYSTAL DATA
#----------------------------------------------------------------------
data_VESTA_phase_1

_chemical_name_common                  'Mg   Al   Hf   N                      '
_cell_length_a                         9.860608
_cell_length_b                         9.872774
_cell_length_c                         10.002120
_cell_angle_alpha                      89.856750
_cell_angle_beta                       89.523804
_cell_angle_gamma                      59.985363
_cell_volume                           843.112879
_space_group_name_H-M_alt              'P 1'
_space_group_IT_number                 1

loop_
_space_group_symop_operation_xyz
   'x, y, z'

loop_
   _atom_site_label
   _atom_site_occupancy
   _atom_site_fract_x
   _atom_site_fract_y
   _atom_site_fract_z
   _atom_site_adp_type
   _atom_site_U_iso_or_equiv
   _atom_site_type_symbol
   Mg1        1.0     0.120459     0.089949     0.371393    Uiso  ? Mg
   Mg2        1.0     0.566890     0.533008     0.114349    Uiso  ? Mg
   Mg3        1.0     0.218944     0.870317     0.076174    Uiso  ? Mg
   Mg4        1.0     0.769959     0.758522     0.886365    Uiso  ? Mg
   Mg5        1.0     0.546091     0.880859     0.116361    Uiso  ? Mg
   Al1        1.0     0.219741     0.212297     0.133250    Uiso  ? Al
   Al2        1.0     0.900106     0.205193     0.631485    Uiso  ? Al
   Al3        1.0     0.428335     0.093646     0.381928    Uiso  ? Al
   Al4        1.0     0.535792     0.207891     0.138442    Uiso  ? Al
   Al5        1.0     0.115423     0.093936     0.884242    Uiso  ? Al
   Al6        1.0     0.217688     0.193240     0.630163    Uiso  ? Al
   Al7        1.0     0.901288     0.221786     0.133772    Uiso  ? Al
   Al8        1.0     0.437076     0.093120     0.886608    Uiso  ? Al
   Al9        1.0     0.114967     0.418020     0.388420    Uiso  ? Al
   Al10       1.0     0.221249     0.543729     0.074861    Uiso  ? Al
   Al11       1.0     0.779760     0.430888     0.882541    Uiso  ? Al
   Al12       1.0     0.880286     0.541462     0.628279    Uiso  ? Al
   Al13       1.0     0.434998     0.440554     0.321164    Uiso  ? Al
   Al14       1.0     0.220574     0.549320     0.568252    Uiso  ? Al
   Al15       1.0     0.770999     0.429019     0.387071    Uiso  ? Al
   Al16       1.0     0.899361     0.526706     0.133849    Uiso  ? Al
   Al17       1.0     0.445627     0.437116     0.861839    Uiso  ? Al
   Al18       1.0     0.556430     0.543302     0.633000    Uiso  ? Al
   Al19       1.0     0.126842     0.748598     0.320032    Uiso  ? Al
   Al20       1.0     0.900041     0.862114     0.571456    Uiso  ? Al
   Al21       1.0     0.435761     0.757924     0.304644    Uiso  ? Al
   Al22       1.0     0.118428     0.767964     0.818546    Uiso  ? Al
   Al23       1.0     0.229592     0.864836     0.569935    Uiso  ? Al
   Al24       1.0     0.906334     0.850028     0.082327    Uiso  ? Al
   Al25       1.0     0.435826     0.769011     0.835166    Uiso  ? Al
   Al26       1.0     0.552547     0.871258     0.636136    Uiso  ? Al
   Hf1        1.0     0.777381     0.100366     0.891715    Uiso  ? Hf
   Hf2        1.0     0.782445     0.097354     0.351721    Uiso  ? Hf
   Hf3        1.0     0.545705     0.212500     0.615364    Uiso  ? Hf
   Hf4        1.0     0.111464     0.429928     0.858792    Uiso  ? Hf
   Hf5        1.0     0.771615     0.756135     0.350969    Uiso  ? Hf
   N1         1.0     0.226314     0.216640     0.322147    Uiso  ? N
   N2         1.0     0.105862     0.114827     0.075281    Uiso  ? N
   N3         1.0     0.896442     0.211717     0.825080    Uiso  ? N
   N4         1.0     0.790519     0.091634     0.581526    Uiso  ? N
   N5         1.0     0.536643     0.211653     0.342346    Uiso  ? N
   N6         1.0     0.430858     0.113906     0.072039    Uiso  ? N
   N7         1.0     0.229204     0.191098     0.820530    Uiso  ? N
   N8         1.0     0.110423     0.091516     0.583131    Uiso  ? N
   N9         1.0     0.887152     0.223741     0.320732    Uiso  ? N
   N10        1.0     0.773756     0.095509     0.108895    Uiso  ? N
   N11        1.0     0.540043     0.213342     0.830921    Uiso  ? N
   N12        1.0     0.431311     0.087834     0.574197    Uiso  ? N
   N13        1.0     0.221459     0.536324     0.376932    Uiso  ? N
   N14        1.0     0.110192     0.428686     0.072136    Uiso  ? N
   N15        1.0     0.877774     0.537064     0.816100    Uiso  ? N
   N16        1.0     0.777677     0.425020     0.578965    Uiso  ? N
   N17        1.0     0.559435     0.534107     0.340480    Uiso  ? N
   N18        1.0     0.435558     0.421479     0.113618    Uiso  ? N
   N19        1.0     0.230500     0.556038     0.877815    Uiso  ? N
   N20        1.0     0.110695     0.424971     0.592233    Uiso  ? N
   N21        1.0     0.901678     0.513012     0.330394    Uiso  ? N
   N22        1.0     0.798446     0.422714     0.067988    Uiso  ? N
   N23        1.0     0.564041     0.534370     0.837052    Uiso  ? N
   N24        1.0     0.431997     0.448730     0.613677    Uiso  ? N
   N25        1.0     0.233445     0.847018     0.379432    Uiso  ? N
   N26        1.0     0.109819     0.748289     0.135482    Uiso  ? N
   N27        1.0     0.908504     0.863434     0.886435    Uiso  ? N
   N28        1.0     0.774058     0.761288     0.578685    Uiso  ? N
   N29        1.0     0.533500     0.883646     0.337672    Uiso  ? N
   N30        1.0     0.440354     0.759696     0.116603    Uiso  ? N
   N31        1.0     0.218004     0.877022     0.863836    Uiso  ? N
   N32        1.0     0.108839     0.760612     0.628417    Uiso  ? N
   N33        1.0     0.913369     0.857755     0.376243    Uiso  ? N
   N34        1.0     0.792614     0.749840     0.117602    Uiso  ? N
   N35        1.0     0.544394     0.885896     0.831135    Uiso  ? N
   N36        1.0     0.441460     0.762052     0.631936    Uiso  ? N
