
#======================================================================
# CRYSTAL DATA
#----------------------------------------------------------------------
data_VESTA_phase_1

_chemical_name_common                  'Mg   Al   Hf   N '
_cell_length_a                         9.746970
_cell_length_b                         9.761773
_cell_length_c                         10.315074
_cell_angle_alpha                      89.498756
_cell_angle_beta                       89.353325
_cell_angle_gamma                      60.202595
_cell_volume                           851.635600
_space_group_name_H-M_alt              'P 1'
_space_group_IT_number                 1

loop_
_space_group_symop_operation_xyz
   'x, y, z'

loop_
   _atom_site_label
   _atom_site_occupancy
   _atom_site_fract_x
   _atom_site_fract_y
   _atom_site_fract_z
   _atom_site_adp_type
   _atom_site_U_iso_or_equiv
   _atom_site_type_symbol
   Mg1        1.0     0.119723     0.088871     0.367126    Uiso  ? Mg
   Mg2        1.0     0.558433     0.540317     0.070662    Uiso  ? Mg
   Mg3        1.0     0.226860     0.865157     0.077752    Uiso  ? Mg
   Mg4        1.0     0.764816     0.754375     0.897363    Uiso  ? Mg
   Mg5        1.0     0.544563     0.883731     0.131823    Uiso  ? Mg
   Al1        1.0     0.224415     0.210243     0.137892    Uiso  ? Al
   Al2        1.0     0.892443     0.208597     0.567286    Uiso  ? Al
   Al3        1.0     0.428668     0.094653     0.391177    Uiso  ? Al
   Al4        1.0     0.539089     0.220647     0.061041    Uiso  ? Al
   Al5        1.0     0.123640     0.089896     0.890589    Uiso  ? Al
   Al6        1.0     0.213706     0.195333     0.636430    Uiso  ? Al
   Al7        1.0     0.893122     0.223435     0.066304    Uiso  ? Al
   Al8        1.0     0.436776     0.087335     0.883870    Uiso  ? Al
   Al9        1.0     0.117369     0.416140     0.393782    Uiso  ? Al
   Al10       1.0     0.227649     0.543986     0.077674    Uiso  ? Al
   Al11       1.0     0.767313     0.431754     0.809942    Uiso  ? Al
   Al12       1.0     0.886202     0.542425     0.631172    Uiso  ? Al
   Al13       1.0     0.435975     0.434292     0.319775    Uiso  ? Al
   Al14       1.0     0.218549     0.548832     0.570726    Uiso  ? Al
   Al15       1.0     0.770615     0.424622     0.319360    Uiso  ? Al
   Al16       1.0     0.901073     0.530821     0.145503    Uiso  ? Al
   Al17       1.0     0.441711     0.447359     0.818947    Uiso  ? Al
   Al18       1.0     0.553162     0.547530     0.565664    Uiso  ? Al
   Al19       1.0     0.124623     0.751820     0.322510    Uiso  ? Al
   Al20       1.0     0.901017     0.865898     0.574300    Uiso  ? Al
   Al21       1.0     0.436159     0.755253     0.314704    Uiso  ? Al
   Al22       1.0     0.121246     0.762380     0.820454    Uiso  ? Al
   Al23       1.0     0.226621     0.867017     0.569486    Uiso  ? Al
   Al24       1.0     0.906938     0.853161     0.074352    Uiso  ? Al
   Al25       1.0     0.438666     0.761502     0.817954    Uiso  ? Al
   Al26       1.0     0.556005     0.869477     0.636244    Uiso  ? Al
   Hf1        1.0     0.789967     0.087208     0.842699    Uiso  ? Hf
   Hf2        1.0     0.772564     0.100319     0.307024    Uiso  ? Hf
   Hf3        1.0     0.550417     0.210665     0.593794    Uiso  ? Hf
   Hf4        1.0     0.109535     0.428784     0.874064    Uiso  ? Hf
   Hf5        1.0     0.774941     0.758348     0.360055    Uiso  ? Hf
   N1         1.0     0.230483     0.216162     0.321763    Uiso  ? N
   N2         1.0     0.111358     0.111456     0.079686    Uiso  ? N
   N3         1.0     0.894316     0.222588     0.877623    Uiso  ? N
   N4         1.0     0.795590     0.082077     0.633696    Uiso  ? N
   N5         1.0     0.544180     0.214130     0.386507    Uiso  ? N
   N6         1.0     0.430828     0.110961     0.065048    Uiso  ? N
   N7         1.0     0.228353     0.192238     0.820097    Uiso  ? N
   N8         1.0     0.109626     0.091589     0.584977    Uiso  ? N
   N9         1.0     0.872512     0.217701     0.382230    Uiso  ? N
   N10        1.0     0.774108     0.099259     0.096819    Uiso  ? N
   N11        1.0     0.539723     0.220408     0.855876    Uiso  ? N
   N12        1.0     0.429659     0.087052     0.580416    Uiso  ? N
   N13        1.0     0.222770     0.538520     0.385420    Uiso  ? N
   N14        1.0     0.109346     0.429541     0.077924    Uiso  ? N
   N15        1.0     0.880409     0.539492     0.816727    Uiso  ? N
   N16        1.0     0.771718     0.424228     0.621502    Uiso  ? N
   N17        1.0     0.555400     0.535101     0.380214    Uiso  ? N
   N18        1.0     0.437383     0.418368     0.136376    Uiso  ? N
   N19        1.0     0.235476     0.551839     0.884446    Uiso  ? N
   N20        1.0     0.111613     0.422062     0.589096    Uiso  ? N
   N21        1.0     0.905102     0.515094     0.337922    Uiso  ? N
   N22        1.0     0.788402     0.420803     0.135852    Uiso  ? N
   N23        1.0     0.557820     0.541852     0.866676    Uiso  ? N
   N24        1.0     0.430232     0.450747     0.632099    Uiso  ? N
   N25        1.0     0.232530     0.847450     0.386164    Uiso  ? N
   N26        1.0     0.108086     0.749587     0.142151    Uiso  ? N
   N27        1.0     0.913869     0.852202     0.890698    Uiso  ? N
   N28        1.0     0.776610     0.760252     0.576852    Uiso  ? N
   N29        1.0     0.535845     0.884966     0.345024    Uiso  ? N
   N30        1.0     0.443285     0.753975     0.138735    Uiso  ? N
   N31        1.0     0.223208     0.872355     0.867381    Uiso  ? N
   N32        1.0     0.110569     0.758454     0.633857    Uiso  ? N
   N33        1.0     0.906673     0.875989     0.385635    Uiso  ? N
   N34        1.0     0.791603     0.753925     0.123152    Uiso  ? N
   N35        1.0     0.545843     0.882432     0.823027    Uiso  ? N
   N36        1.0     0.443261     0.757339     0.627015    Uiso  ? N
