
#======================================================================
# CRYSTAL DATA
#----------------------------------------------------------------------
data_VESTA_phase_1

_chemical_name_common                  'Mg   Al   Hf   N '
_cell_length_a                         9.730131
_cell_length_b                         9.733530
_cell_length_c                         10.166631
_cell_angle_alpha                      90.103409
_cell_angle_beta                       89.933655
_cell_angle_gamma                      60.079834
_cell_volume                           834.533219
_space_group_name_H-M_alt              'P 1'
_space_group_IT_number                 1

loop_
_space_group_symop_operation_xyz
   'x, y, z'

loop_
   _atom_site_label
   _atom_site_occupancy
   _atom_site_fract_x
   _atom_site_fract_y
   _atom_site_fract_z
   _atom_site_adp_type
   _atom_site_U_iso_or_equiv
   _atom_site_type_symbol
   Mg1        1.0     0.119149     0.089932     0.304205    Uiso  ? Mg
   Mg2        1.0     0.555728     0.542301     0.054831    Uiso  ? Mg
   Mg3        1.0     0.225810     0.871787     0.052547    Uiso  ? Mg
   Mg4        1.0     0.772313     0.758122     0.795604    Uiso  ? Mg
   Mg5        1.0     0.550916     0.871219     0.049586    Uiso  ? Mg
   Al1        1.0     0.221537     0.200113     0.057200    Uiso  ? Al
   Al2        1.0     0.894371     0.208078     0.555825    Uiso  ? Al
   Al3        1.0     0.432115     0.099076     0.295984    Uiso  ? Al
   Al4        1.0     0.532152     0.217495     0.047852    Uiso  ? Al
   Al5        1.0     0.119702     0.086798     0.799495    Uiso  ? Al
   Al6        1.0     0.216786     0.206099     0.545941    Uiso  ? Al
   Al7        1.0     0.902272     0.217865     0.046292    Uiso  ? Al
   Al8        1.0     0.437004     0.085697     0.803989    Uiso  ? Al
   Al9        1.0     0.118644     0.421578     0.295147    Uiso  ? Al
   Al10       1.0     0.224682     0.542979     0.060237    Uiso  ? Al
   Al11       1.0     0.771538     0.434747     0.799921    Uiso  ? Al
   Al12       1.0     0.890925     0.532298     0.549799    Uiso  ? Al
   Al13       1.0     0.439239     0.437024     0.298213    Uiso  ? Al
   Al14       1.0     0.216435     0.545735     0.546353    Uiso  ? Al
   Al15       1.0     0.776950     0.425549     0.301557    Uiso  ? Al
   Al16       1.0     0.886885     0.536017     0.057374    Uiso  ? Al
   Al17       1.0     0.440614     0.443635     0.803932    Uiso  ? Al
   Al18       1.0     0.555058     0.545216     0.552248    Uiso  ? Al
   Al19       1.0     0.123675     0.755637     0.301482    Uiso  ? Al
   Al20       1.0     0.898809     0.865739     0.556183    Uiso  ? Al
   Al21       1.0     0.435797     0.761310     0.301080    Uiso  ? Al
   Al22       1.0     0.122365     0.760531     0.800202    Uiso  ? Al
   Al23       1.0     0.224308     0.868466     0.554116    Uiso  ? Al
   Al24       1.0     0.904631     0.848876     0.047738    Uiso  ? Al
   Al25       1.0     0.444213     0.762064     0.799179    Uiso  ? Al
   Al26       1.0     0.546184     0.871824     0.556307    Uiso  ? Al
   Hf1        1.0     0.781576     0.091239     0.831967    Uiso  ? Hf
   Hf2        1.0     0.782093     0.098323     0.284308    Uiso  ? Hf
   Hf3        1.0     0.551469     0.207927     0.561945    Uiso  ? Hf
   Hf4        1.0     0.112634     0.429150     0.815929    Uiso  ? Hf
   Hf5        1.0     0.774408     0.757829     0.317056    Uiso  ? Hf
   N1         1.0     0.228108     0.216397     0.363336    Uiso  ? N
   N2         1.0     0.104679     0.106090     0.104403    Uiso  ? N
   N3         1.0     0.899918     0.216408     0.855973    Uiso  ? N
   N4         1.0     0.792802     0.085672     0.616366    Uiso  ? N
   N5         1.0     0.548514     0.209260     0.355961    Uiso  ? N
   N6         1.0     0.435884     0.108255     0.111835    Uiso  ? N
   N7         1.0     0.226719     0.191815     0.863935    Uiso  ? N
   N8         1.0     0.111422     0.095955     0.607261    Uiso  ? N
   N9         1.0     0.878274     0.216941     0.370517    Uiso  ? N
   N10        1.0     0.774560     0.096731     0.071623    Uiso  ? N
   N11        1.0     0.529600     0.219281     0.850177    Uiso  ? N
   N12        1.0     0.430735     0.091667     0.613464    Uiso  ? N
   N13        1.0     0.221213     0.537561     0.358934    Uiso  ? N
   N14        1.0     0.112692     0.428012     0.100160    Uiso  ? N
   N15        1.0     0.879781     0.532746     0.868479    Uiso  ? N
   N16        1.0     0.778308     0.428276     0.610066    Uiso  ? N
   N17        1.0     0.558307     0.535288     0.363569    Uiso  ? N
   N18        1.0     0.437840     0.422197     0.114396    Uiso  ? N
   N19        1.0     0.231874     0.550464     0.868391    Uiso  ? N
   N20        1.0     0.110749     0.429307     0.607406    Uiso  ? N
   N21        1.0     0.901888     0.516784     0.361749    Uiso  ? N
   N22        1.0     0.790458     0.420735     0.117380    Uiso  ? N
   N23        1.0     0.557296     0.539574     0.846475    Uiso  ? N
   N24        1.0     0.431771     0.446274     0.611915    Uiso  ? N
   N25        1.0     0.227320     0.856422     0.370074    Uiso  ? N
   N26        1.0     0.106373     0.754052     0.118291    Uiso  ? N
   N27        1.0     0.911670     0.851309     0.861764    Uiso  ? N
   N28        1.0     0.777945     0.759669     0.579848    Uiso  ? N
   N29        1.0     0.533275     0.887405     0.366981    Uiso  ? N
   N30        1.0     0.445264     0.760525     0.124440    Uiso  ? N
   N31        1.0     0.224123     0.872038     0.842337    Uiso  ? N
   N32        1.0     0.111755     0.757211     0.611108    Uiso  ? N
   N33        1.0     0.903455     0.872845     0.366306    Uiso  ? N
   N34        1.0     0.792412     0.753291     0.113529    Uiso  ? N
   N35        1.0     0.544240     0.876825     0.845636    Uiso  ? N
   N36        1.0     0.444179     0.759365     0.607561    Uiso  ? N
