
#======================================================================
# CRYSTAL DATA
#----------------------------------------------------------------------
data_VESTA_phase_1

_chemical_name_common                  'Mg   Al   Hf   N                      '
_cell_length_a                         9.786485
_cell_length_b                         9.803981
_cell_length_c                         10.164958
_cell_angle_alpha                      89.775322
_cell_angle_beta                       89.467545
_cell_angle_gamma                      59.932541
_cell_volume                           844.016364
_space_group_name_H-M_alt              'P 1'
_space_group_IT_number                 1

loop_
_space_group_symop_operation_xyz
   'x, y, z'

loop_
   _atom_site_label
   _atom_site_occupancy
   _atom_site_fract_x
   _atom_site_fract_y
   _atom_site_fract_z
   _atom_site_adp_type
   _atom_site_U_iso_or_equiv
   _atom_site_type_symbol
   Mg1        1.0     0.116699     0.087597     0.327359    Uiso  ? Mg
   Mg2        1.0     0.557086     0.538224     0.075458    Uiso  ? Mg
   Mg3        1.0     0.222599     0.873925     0.072668    Uiso  ? Mg
   Mg4        1.0     0.778561     0.757365     0.822211    Uiso  ? Mg
   Mg5        1.0     0.549882     0.875306     0.119984    Uiso  ? Mg
   Al1        1.0     0.225173     0.205243     0.136118    Uiso  ? Al
   Al2        1.0     0.893445     0.207666     0.574476    Uiso  ? Al
   Al3        1.0     0.431123     0.095186     0.390185    Uiso  ? Al
   Al4        1.0     0.535590     0.220294     0.065073    Uiso  ? Al
   Al5        1.0     0.115378     0.082295     0.820155    Uiso  ? Al
   Al6        1.0     0.216461     0.204170     0.635842    Uiso  ? Al
   Al7        1.0     0.904918     0.220221     0.067411    Uiso  ? Al
   Al8        1.0     0.434869     0.084656     0.885751    Uiso  ? Al
   Al9        1.0     0.116260     0.428982     0.327869    Uiso  ? Al
   Al10       1.0     0.226350     0.545472     0.079763    Uiso  ? Al
   Al11       1.0     0.770188     0.435180     0.819505    Uiso  ? Al
   Al12       1.0     0.893532     0.530176     0.576167    Uiso  ? Al
   Al13       1.0     0.439287     0.433585     0.323245    Uiso  ? Al
   Al14       1.0     0.214627     0.546866     0.572805    Uiso  ? Al
   Al15       1.0     0.777904     0.425056     0.323227    Uiso  ? Al
   Al16       1.0     0.881639     0.540070     0.077805    Uiso  ? Al
   Al17       1.0     0.440513     0.447446     0.821103    Uiso  ? Al
   Al18       1.0     0.554399     0.546404     0.569550    Uiso  ? Al
   Al19       1.0     0.123070     0.756882     0.323253    Uiso  ? Al
   Al20       1.0     0.900293     0.867182     0.578089    Uiso  ? Al
   Al21       1.0     0.435963     0.757453     0.317251    Uiso  ? Al
   Al22       1.0     0.122692     0.760031     0.821263    Uiso  ? Al
   Al23       1.0     0.225246     0.866982     0.571965    Uiso  ? Al
   Al24       1.0     0.904864     0.847548     0.072440    Uiso  ? Al
   Al25       1.0     0.440699     0.759036     0.820662    Uiso  ? Al
   Al26       1.0     0.548758     0.871500     0.629414    Uiso  ? Al
   Hf1        1.0     0.785380     0.090059     0.853660    Uiso  ? Hf
   Hf2        1.0     0.776667     0.101479     0.308142    Uiso  ? Hf
   Hf3        1.0     0.551746     0.209622     0.599044    Uiso  ? Hf
   Hf4        1.0     0.112456     0.428712     0.858409    Uiso  ? Hf
   Hf5        1.0     0.777617     0.757432     0.348646    Uiso  ? Hf
   N1         1.0     0.233337     0.215279     0.326049    Uiso  ? N
   N2         1.0     0.106299     0.106364     0.120973    Uiso  ? N
   N3         1.0     0.899220     0.217703     0.877786    Uiso  ? N
   N4         1.0     0.796026     0.083823     0.638949    Uiso  ? N
   N5         1.0     0.548230     0.212465     0.386902    Uiso  ? N
   N6         1.0     0.432730     0.107188     0.068622    Uiso  ? N
   N7         1.0     0.228535     0.189239     0.826356    Uiso  ? N
   N8         1.0     0.106870     0.090808     0.624584    Uiso  ? N
   N9         1.0     0.877270     0.216799     0.389620    Uiso  ? N
   N10        1.0     0.771125     0.098493     0.093668    Uiso  ? N
   N11        1.0     0.534640     0.220724     0.854575    Uiso  ? N
   N12        1.0     0.427955     0.090324     0.580769    Uiso  ? N
   N13        1.0     0.219630     0.539718     0.383705    Uiso  ? N
   N14        1.0     0.110549     0.432515     0.100102    Uiso  ? N
   N15        1.0     0.873601     0.535013     0.888259    Uiso  ? N
   N16        1.0     0.777460     0.427411     0.630123    Uiso  ? N
   N17        1.0     0.558199     0.534228     0.381581    Uiso  ? N
   N18        1.0     0.436805     0.418800     0.138226    Uiso  ? N
   N19        1.0     0.235191     0.551962     0.888068    Uiso  ? N
   N20        1.0     0.109472     0.433566     0.634436    Uiso  ? N
   N21        1.0     0.903244     0.513508     0.386770    Uiso  ? N
   N22        1.0     0.791212     0.421411     0.138996    Uiso  ? N
   N23        1.0     0.557247     0.539457     0.868035    Uiso  ? N
   N24        1.0     0.430339     0.450669     0.630932    Uiso  ? N
   N25        1.0     0.228975     0.854528     0.388437    Uiso  ? N
   N26        1.0     0.106428     0.753645     0.140538    Uiso  ? N
   N27        1.0     0.913103     0.850723     0.886254    Uiso  ? N
   N28        1.0     0.780036     0.759719     0.599226    Uiso  ? N
   N29        1.0     0.538042     0.881365     0.354147    Uiso  ? N
   N30        1.0     0.440570     0.755369     0.138242    Uiso  ? N
   N31        1.0     0.222936     0.871112     0.864937    Uiso  ? N
   N32        1.0     0.111598     0.758672     0.632833    Uiso  ? N
   N33        1.0     0.903873     0.876777     0.388332    Uiso  ? N
   N34        1.0     0.795478     0.751023     0.139070    Uiso  ? N
   N35        1.0     0.542528     0.882023     0.822161    Uiso  ? N
   N36        1.0     0.441685     0.756644     0.626711    Uiso  ? N
