
#======================================================================
# CRYSTAL DATA
#----------------------------------------------------------------------
data_VESTA_phase_1

_chemical_name_common                  'Mg   Al   Hf   N                      '
_cell_length_a                         9.782907
_cell_length_b                         9.800551
_cell_length_c                         10.244170
_cell_angle_alpha                      89.603554
_cell_angle_beta                       89.372574
_cell_angle_gamma                      60.058949
_cell_volume                           851.053554
_space_group_name_H-M_alt              'P 1'
_space_group_IT_number                 1

loop_
_space_group_symop_operation_xyz
   'x, y, z'

loop_
   _atom_site_label
   _atom_site_occupancy
   _atom_site_fract_x
   _atom_site_fract_y
   _atom_site_fract_z
   _atom_site_adp_type
   _atom_site_U_iso_or_equiv
   _atom_site_type_symbol
   Mg1        1.0     0.119133     0.088654     0.362569    Uiso  ? Mg
   Mg2        1.0     0.559351     0.540646     0.071980    Uiso  ? Mg
   Mg3        1.0     0.227052     0.865244     0.080760    Uiso  ? Mg
   Mg4        1.0     0.773548     0.764350     0.835956    Uiso  ? Mg
   Mg5        1.0     0.551776     0.878274     0.125974    Uiso  ? Mg
   Al1        1.0     0.224879     0.210877     0.138031    Uiso  ? Al
   Al2        1.0     0.892354     0.206282     0.566708    Uiso  ? Al
   Al3        1.0     0.428456     0.094744     0.390931    Uiso  ? Al
   Al4        1.0     0.537667     0.221326     0.061758    Uiso  ? Al
   Al5        1.0     0.123864     0.090212     0.893110    Uiso  ? Al
   Al6        1.0     0.213080     0.194571     0.637039    Uiso  ? Al
   Al7        1.0     0.893642     0.225567     0.069507    Uiso  ? Al
   Al8        1.0     0.436160     0.087687     0.883817    Uiso  ? Al
   Al9        1.0     0.118720     0.415016     0.395657    Uiso  ? Al
   Al10       1.0     0.226937     0.544352     0.077434    Uiso  ? Al
   Al11       1.0     0.767343     0.431976     0.809951    Uiso  ? Al
   Al12       1.0     0.888318     0.535655     0.624667    Uiso  ? Al
   Al13       1.0     0.435777     0.433449     0.320375    Uiso  ? Al
   Al14       1.0     0.219028     0.548985     0.571830    Uiso  ? Al
   Al15       1.0     0.770093     0.423859     0.322538    Uiso  ? Al
   Al16       1.0     0.900770     0.532712     0.148017    Uiso  ? Al
   Al17       1.0     0.441472     0.448141     0.819658    Uiso  ? Al
   Al18       1.0     0.551779     0.546463     0.565774    Uiso  ? Al
   Al19       1.0     0.123030     0.751372     0.322474    Uiso  ? Al
   Al20       1.0     0.901964     0.867522     0.576672    Uiso  ? Al
   Al21       1.0     0.436426     0.755309     0.315253    Uiso  ? Al
   Al22       1.0     0.123265     0.763289     0.821254    Uiso  ? Al
   Al23       1.0     0.225207     0.867431     0.567974    Uiso  ? Al
   Al24       1.0     0.905384     0.848014     0.073182    Uiso  ? Al
   Al25       1.0     0.438636     0.761866     0.819012    Uiso  ? Al
   Al26       1.0     0.547981     0.872321     0.629176    Uiso  ? Al
   Hf1        1.0     0.789590     0.091149     0.847665    Uiso  ? Hf
   Hf2        1.0     0.772736     0.096863     0.306483    Uiso  ? Hf
   Hf3        1.0     0.550424     0.209808     0.596341    Uiso  ? Hf
   Hf4        1.0     0.109658     0.429275     0.871942    Uiso  ? Hf
   Hf5        1.0     0.775032     0.757870     0.361836    Uiso  ? Hf
   N1         1.0     0.230460     0.216305     0.322390    Uiso  ? N
   N2         1.0     0.111278     0.111541     0.083791    Uiso  ? N
   N3         1.0     0.895246     0.224238     0.879619    Uiso  ? N
   N4         1.0     0.795543     0.083180     0.636263    Uiso  ? N
   N5         1.0     0.544629     0.212670     0.386335    Uiso  ? N
   N6         1.0     0.432279     0.109702     0.066515    Uiso  ? N
   N7         1.0     0.227498     0.192094     0.822158    Uiso  ? N
   N8         1.0     0.109275     0.091633     0.584345    Uiso  ? N
   N9         1.0     0.871812     0.215043     0.380300    Uiso  ? N
   N10        1.0     0.772994     0.100523     0.094532    Uiso  ? N
   N11        1.0     0.538840     0.220868     0.855085    Uiso  ? N
   N12        1.0     0.427226     0.089911     0.580943    Uiso  ? N
   N13        1.0     0.222058     0.538213     0.385397    Uiso  ? N
   N14        1.0     0.108303     0.430730     0.078170    Uiso  ? N
   N15        1.0     0.882954     0.534661     0.813262    Uiso  ? N
   N16        1.0     0.770941     0.422296     0.619763    Uiso  ? N
   N17        1.0     0.553909     0.534355     0.379746    Uiso  ? N
   N18        1.0     0.436567     0.419420     0.135676    Uiso  ? N
   N19        1.0     0.234946     0.552640     0.883670    Uiso  ? N
   N20        1.0     0.114661     0.420613     0.591628    Uiso  ? N
   N21        1.0     0.903565     0.513130     0.348679    Uiso  ? N
   N22        1.0     0.789169     0.423350     0.138115    Uiso  ? N
   N23        1.0     0.557954     0.541658     0.866468    Uiso  ? N
   N24        1.0     0.430582     0.449974     0.631862    Uiso  ? N
   N25        1.0     0.231061     0.847477     0.383653    Uiso  ? N
   N26        1.0     0.107278     0.750177     0.140426    Uiso  ? N
   N27        1.0     0.913762     0.853128     0.888458    Uiso  ? N
   N28        1.0     0.777606     0.762190     0.589924    Uiso  ? N
   N29        1.0     0.534988     0.882158     0.354165    Uiso  ? N
   N30        1.0     0.445078     0.755226     0.138116    Uiso  ? N
   N31        1.0     0.223317     0.873312     0.869234    Uiso  ? N
   N32        1.0     0.111751     0.758784     0.634266    Uiso  ? N
   N33        1.0     0.906742     0.874838     0.389267    Uiso  ? N
   N34        1.0     0.795620     0.755595     0.143488    Uiso  ? N
   N35        1.0     0.540971     0.885156     0.819923    Uiso  ? N
   N36        1.0     0.440978     0.756454     0.626170    Uiso  ? N
