
#======================================================================
# CRYSTAL DATA
#----------------------------------------------------------------------
data_VESTA_phase_1

_chemical_name_common                  'Mg   Al   Hf   N                      '
_cell_length_a                         9.850020
_cell_length_b                         9.856371
_cell_length_c                         10.031439
_cell_angle_alpha                      89.879089
_cell_angle_beta                       89.484772
_cell_angle_gamma                      60.020329
_cell_volume                           843.563447
_space_group_name_H-M_alt              'P 1'
_space_group_IT_number                 1

loop_
_space_group_symop_operation_xyz
   'x, y, z'

loop_
   _atom_site_label
   _atom_site_occupancy
   _atom_site_fract_x
   _atom_site_fract_y
   _atom_site_fract_z
   _atom_site_adp_type
   _atom_site_U_iso_or_equiv
   _atom_site_type_symbol
   Mg1        1.0     0.120489     0.089402     0.371628    Uiso  ? Mg
   Mg2        1.0     0.566539     0.530658     0.122280    Uiso  ? Mg
   Mg3        1.0     0.219716     0.870040     0.075194    Uiso  ? Mg
   Mg4        1.0     0.769758     0.758737     0.886498    Uiso  ? Mg
   Mg5        1.0     0.546335     0.881375     0.116317    Uiso  ? Mg
   Al1        1.0     0.220162     0.211758     0.133241    Uiso  ? Al
   Al2        1.0     0.899997     0.204905     0.631654    Uiso  ? Al
   Al3        1.0     0.428425     0.094560     0.381373    Uiso  ? Al
   Al4        1.0     0.532022     0.214846     0.140081    Uiso  ? Al
   Al5        1.0     0.115368     0.093983     0.884168    Uiso  ? Al
   Al6        1.0     0.218013     0.192929     0.630351    Uiso  ? Al
   Al7        1.0     0.901141     0.221523     0.133475    Uiso  ? Al
   Al8        1.0     0.436999     0.093576     0.887155    Uiso  ? Al
   Al9        1.0     0.114308     0.417707     0.387248    Uiso  ? Al
   Al10       1.0     0.220978     0.543726     0.075607    Uiso  ? Al
   Al11       1.0     0.777831     0.431440     0.882374    Uiso  ? Al
   Al12       1.0     0.879716     0.541439     0.628781    Uiso  ? Al
   Al13       1.0     0.439931     0.441610     0.372064    Uiso  ? Al
   Al14       1.0     0.215228     0.550696     0.568868    Uiso  ? Al
   Al15       1.0     0.772575     0.428561     0.387274    Uiso  ? Al
   Al16       1.0     0.898903     0.526737     0.133407    Uiso  ? Al
   Al17       1.0     0.448244     0.435107     0.892599    Uiso  ? Al
   Al18       1.0     0.556435     0.541551     0.634963    Uiso  ? Al
   Al19       1.0     0.127009     0.748273     0.318769    Uiso  ? Al
   Al20       1.0     0.899632     0.862595     0.570560    Uiso  ? Al
   Al21       1.0     0.435505     0.759030     0.303749    Uiso  ? Al
   Al22       1.0     0.118265     0.767742     0.818193    Uiso  ? Al
   Al23       1.0     0.229845     0.864511     0.569642    Uiso  ? Al
   Al24       1.0     0.906185     0.850667     0.082056    Uiso  ? Al
   Al25       1.0     0.435755     0.767789     0.834465    Uiso  ? Al
   Al26       1.0     0.552712     0.870668     0.636278    Uiso  ? Al
   Hf1        1.0     0.776219     0.101500     0.893025    Uiso  ? Hf
   Hf2        1.0     0.781468     0.097714     0.349891    Uiso  ? Hf
   Hf3        1.0     0.546507     0.211187     0.619090    Uiso  ? Hf
   Hf4        1.0     0.111302     0.430151     0.859324    Uiso  ? Hf
   Hf5        1.0     0.771761     0.756029     0.350677    Uiso  ? Hf
   N1         1.0     0.226213     0.216035     0.321832    Uiso  ? N
   N2         1.0     0.105902     0.114929     0.074782    Uiso  ? N
   N3         1.0     0.896443     0.211294     0.824772    Uiso  ? N
   N4         1.0     0.789478     0.091717     0.580582    Uiso  ? N
   N5         1.0     0.534568     0.215398     0.339048    Uiso  ? N
   N6         1.0     0.431500     0.114850     0.072443    Uiso  ? N
   N7         1.0     0.229593     0.190873     0.820071    Uiso  ? N
   N8         1.0     0.110521     0.091290     0.582836    Uiso  ? N
   N9         1.0     0.887502     0.223280     0.320451    Uiso  ? N
   N10        1.0     0.774543     0.095512     0.109626    Uiso  ? N
   N11        1.0     0.538878     0.215561     0.828747    Uiso  ? N
   N12        1.0     0.432314     0.087688     0.573390    Uiso  ? N
   N13        1.0     0.217633     0.537655     0.375499    Uiso  ? N
   N14        1.0     0.110541     0.428660     0.072526    Uiso  ? N
   N15        1.0     0.877019     0.537169     0.815977    Uiso  ? N
   N16        1.0     0.777655     0.424661     0.578542    Uiso  ? N
   N17        1.0     0.561597     0.534380     0.337826    Uiso  ? N
   N18        1.0     0.441296     0.418916     0.083635    Uiso  ? N
   N19        1.0     0.230053     0.555609     0.872656    Uiso  ? N
   N20        1.0     0.110295     0.424477     0.591842    Uiso  ? N
   N21        1.0     0.901679     0.512765     0.329568    Uiso  ? N
   N22        1.0     0.797339     0.422945     0.067491    Uiso  ? N
   N23        1.0     0.562044     0.531062     0.832545    Uiso  ? N
   N24        1.0     0.437221     0.446490     0.578421    Uiso  ? N
   N25        1.0     0.234153     0.845919     0.379702    Uiso  ? N
   N26        1.0     0.110069     0.748577     0.134779    Uiso  ? N
   N27        1.0     0.907819     0.864496     0.886510    Uiso  ? N
   N28        1.0     0.774125     0.761009     0.578141    Uiso  ? N
   N29        1.0     0.533667     0.884368     0.337188    Uiso  ? N
   N30        1.0     0.441183     0.758963     0.116393    Uiso  ? N
   N31        1.0     0.218058     0.876884     0.863675    Uiso  ? N
   N32        1.0     0.108424     0.761229     0.628266    Uiso  ? N
   N33        1.0     0.913257     0.858171     0.375909    Uiso  ? N
   N34        1.0     0.792847     0.749875     0.117651    Uiso  ? N
   N35        1.0     0.544147     0.885858     0.830813    Uiso  ? N
   N36        1.0     0.441507     0.761090     0.631843    Uiso  ? N
