
#======================================================================
# CRYSTAL DATA
#----------------------------------------------------------------------
data_VESTA_phase_1

_chemical_name_common                  'Mg   Al   Hf   N                      '
_cell_length_a                         9.801003
_cell_length_b                         9.826258
_cell_length_c                         10.165121
_cell_angle_alpha                      89.752052
_cell_angle_beta                       89.523094
_cell_angle_gamma                      59.994602
_cell_volume                           847.741029
_space_group_name_H-M_alt              'P 1'
_space_group_IT_number                 1

loop_
_space_group_symop_operation_xyz
   'x, y, z'

loop_
   _atom_site_label
   _atom_site_occupancy
   _atom_site_fract_x
   _atom_site_fract_y
   _atom_site_fract_z
   _atom_site_adp_type
   _atom_site_U_iso_or_equiv
   _atom_site_type_symbol
   Mg1        1.0     0.118634     0.088719     0.359255    Uiso  ? Mg
   Mg2        1.0     0.558507     0.539533     0.074164    Uiso  ? Mg
   Mg3        1.0     0.227211     0.864503     0.082248    Uiso  ? Mg
   Mg4        1.0     0.776554     0.765300     0.821312    Uiso  ? Mg
   Mg5        1.0     0.551671     0.877713     0.123209    Uiso  ? Mg
   Al1        1.0     0.222686     0.214572     0.136700    Uiso  ? Al
   Al2        1.0     0.891993     0.206103     0.567070    Uiso  ? Al
   Al3        1.0     0.428605     0.094889     0.389649    Uiso  ? Al
   Al4        1.0     0.536177     0.221801     0.062497    Uiso  ? Al
   Al5        1.0     0.123133     0.090435     0.895098    Uiso  ? Al
   Al6        1.0     0.215293     0.190434     0.637830    Uiso  ? Al
   Al7        1.0     0.894432     0.224551     0.072794    Uiso  ? Al
   Al8        1.0     0.436136     0.086546     0.884687    Uiso  ? Al
   Al9        1.0     0.119302     0.414678     0.399400    Uiso  ? Al
   Al10       1.0     0.225863     0.543412     0.074510    Uiso  ? Al
   Al11       1.0     0.768106     0.432772     0.812443    Uiso  ? Al
   Al12       1.0     0.885582     0.532514     0.597716    Uiso  ? Al
   Al13       1.0     0.435413     0.433631     0.321435    Uiso  ? Al
   Al14       1.0     0.220144     0.550517     0.574610    Uiso  ? Al
   Al15       1.0     0.773770     0.426701     0.325738    Uiso  ? Al
   Al16       1.0     0.892213     0.537954     0.096167    Uiso  ? Al
   Al17       1.0     0.442248     0.449396     0.820525    Uiso  ? Al
   Al18       1.0     0.551925     0.546184     0.567067    Uiso  ? Al
   Al19       1.0     0.122905     0.750674     0.322799    Uiso  ? Al
   Al20       1.0     0.901178     0.867884     0.577014    Uiso  ? Al
   Al21       1.0     0.437546     0.754843     0.315741    Uiso  ? Al
   Al22       1.0     0.123620     0.765353     0.821777    Uiso  ? Al
   Al23       1.0     0.225042     0.868005     0.567981    Uiso  ? Al
   Al24       1.0     0.906172     0.847000     0.072380    Uiso  ? Al
   Al25       1.0     0.439604     0.761903     0.821400    Uiso  ? Al
   Al26       1.0     0.547217     0.872576     0.629103    Uiso  ? Al
   Hf1        1.0     0.788727     0.092056     0.848654    Uiso  ? Hf
   Hf2        1.0     0.771230     0.097068     0.308544    Uiso  ? Hf
   Hf3        1.0     0.549034     0.209980     0.598415    Uiso  ? Hf
   Hf4        1.0     0.114284     0.429362     0.856136    Uiso  ? Hf
   Hf5        1.0     0.777908     0.753522     0.357569    Uiso  ? Hf
   N1         1.0     0.228691     0.218510     0.323280    Uiso  ? N
   N2         1.0     0.111349     0.110708     0.087735    Uiso  ? N
   N3         1.0     0.894807     0.223304     0.881909    Uiso  ? N
   N4         1.0     0.794791     0.084129     0.635156    Uiso  ? N
   N5         1.0     0.542912     0.213723     0.386664    Uiso  ? N
   N6         1.0     0.432418     0.109617     0.068618    Uiso  ? N
   N7         1.0     0.228211     0.188455     0.823490    Uiso  ? N
   N8         1.0     0.108702     0.091912     0.583450    Uiso  ? N
   N9         1.0     0.871355     0.215657     0.378585    Uiso  ? N
   N10        1.0     0.771835     0.100717     0.095861    Uiso  ? N
   N11        1.0     0.537341     0.221432     0.854466    Uiso  ? N
   N12        1.0     0.427351     0.089008     0.580694    Uiso  ? N
   N13        1.0     0.220676     0.538039     0.387166    Uiso  ? N
   N14        1.0     0.111128     0.429100     0.070596    Uiso  ? N
   N15        1.0     0.879524     0.535432     0.836115    Uiso  ? N
   N16        1.0     0.770651     0.420969     0.624195    Uiso  ? N
   N17        1.0     0.554804     0.533957     0.379426    Uiso  ? N
   N18        1.0     0.435484     0.420047     0.135544    Uiso  ? N
   N19        1.0     0.235862     0.555505     0.881762    Uiso  ? N
   N20        1.0     0.119179     0.420555     0.604526    Uiso  ? N
   N21        1.0     0.896671     0.512489     0.394624    Uiso  ? N
   N22        1.0     0.792916     0.425669     0.140047    Uiso  ? N
   N23        1.0     0.558320     0.541620     0.868139    Uiso  ? N
   N24        1.0     0.431938     0.450212     0.631579    Uiso  ? N
   N25        1.0     0.231216     0.847313     0.382340    Uiso  ? N
   N26        1.0     0.107512     0.748921     0.139735    Uiso  ? N
   N27        1.0     0.913436     0.854411     0.887160    Uiso  ? N
   N28        1.0     0.777306     0.764435     0.596330    Uiso  ? N
   N29        1.0     0.537617     0.881531     0.353738    Uiso  ? N
   N30        1.0     0.446188     0.754783     0.137360    Uiso  ? N
   N31        1.0     0.223667     0.874329     0.870039    Uiso  ? N
   N32        1.0     0.111458     0.760808     0.633694    Uiso  ? N
   N33        1.0     0.905920     0.872915     0.388159    Uiso  ? N
   N34        1.0     0.798241     0.750074     0.141294    Uiso  ? N
   N35        1.0     0.541813     0.884446     0.821722    Uiso  ? N
   N36        1.0     0.441016     0.756552     0.626274    Uiso  ? N
