
#======================================================================
# CRYSTAL DATA
#----------------------------------------------------------------------
data_VESTA_phase_1

_chemical_name_common                  'Mg   Al   Hf   N                      '
_cell_length_a                         9.843499
_cell_length_b                         9.862190
_cell_length_c                         9.964538
_cell_angle_alpha                      89.971886
_cell_angle_beta                       89.437927
_cell_angle_gamma                      60.128796
_cell_volume                           838.776724
_space_group_name_H-M_alt              'P 1'
_space_group_IT_number                 1

loop_
_space_group_symop_operation_xyz
   'x, y, z'

loop_
   _atom_site_label
   _atom_site_occupancy
   _atom_site_fract_x
   _atom_site_fract_y
   _atom_site_fract_z
   _atom_site_adp_type
   _atom_site_U_iso_or_equiv
   _atom_site_type_symbol
   Mg1        1.0     0.116952     0.095258     0.369100    Uiso  ? Mg
   Mg2        1.0     0.566595     0.524701     0.119968    Uiso  ? Mg
   Mg3        1.0     0.211729     0.874522     0.087068    Uiso  ? Mg
   Mg4        1.0     0.772213     0.757892     0.881328    Uiso  ? Mg
   Mg5        1.0     0.551336     0.884045     0.113672    Uiso  ? Mg
   Al1        1.0     0.220932     0.211605     0.134744    Uiso  ? Al
   Al2        1.0     0.899997     0.204749     0.630154    Uiso  ? Al
   Al3        1.0     0.428476     0.094083     0.380863    Uiso  ? Al
   Al4        1.0     0.530333     0.218156     0.139800    Uiso  ? Al
   Al5        1.0     0.117782     0.090345     0.885039    Uiso  ? Al
   Al6        1.0     0.218233     0.192221     0.629501    Uiso  ? Al
   Al7        1.0     0.900056     0.222861     0.133044    Uiso  ? Al
   Al8        1.0     0.436794     0.093532     0.886218    Uiso  ? Al
   Al9        1.0     0.116379     0.419989     0.390540    Uiso  ? Al
   Al10       1.0     0.224209     0.530572     0.133817    Uiso  ? Al
   Al11       1.0     0.778364     0.429835     0.881305    Uiso  ? Al
   Al12       1.0     0.879824     0.540876     0.628160    Uiso  ? Al
   Al13       1.0     0.439373     0.446766     0.382925    Uiso  ? Al
   Al14       1.0     0.219488     0.546977     0.613184    Uiso  ? Al
   Al15       1.0     0.770178     0.431280     0.387493    Uiso  ? Al
   Al16       1.0     0.897856     0.527380     0.134082    Uiso  ? Al
   Al17       1.0     0.439363     0.437460     0.887133    Uiso  ? Al
   Al18       1.0     0.552399     0.549557     0.640124    Uiso  ? Al
   Al19       1.0     0.122825     0.752104     0.321804    Uiso  ? Al
   Al20       1.0     0.898251     0.864037     0.570184    Uiso  ? Al
   Al21       1.0     0.438447     0.759303     0.300560    Uiso  ? Al
   Al22       1.0     0.121079     0.770190     0.813549    Uiso  ? Al
   Al23       1.0     0.233367     0.865003     0.560679    Uiso  ? Al
   Al24       1.0     0.909145     0.846093     0.078875    Uiso  ? Al
   Al25       1.0     0.441629     0.762365     0.894813    Uiso  ? Al
   Al26       1.0     0.546752     0.866783     0.642796    Uiso  ? Al
   Hf1        1.0     0.776133     0.100490     0.890863    Uiso  ? Hf
   Hf2        1.0     0.780712     0.097748     0.346780    Uiso  ? Hf
   Hf3        1.0     0.547534     0.209333     0.615739    Uiso  ? Hf
   Hf4        1.0     0.112445     0.429554     0.864561    Uiso  ? Hf
   Hf5        1.0     0.769739     0.756196     0.352912    Uiso  ? Hf
   N1         1.0     0.226412     0.217986     0.323397    Uiso  ? N
   N2         1.0     0.105899     0.116173     0.077438    Uiso  ? N
   N3         1.0     0.897915     0.209395     0.825028    Uiso  ? N
   N4         1.0     0.789536     0.091635     0.579942    Uiso  ? N
   N5         1.0     0.534256     0.218267     0.341136    Uiso  ? N
   N6         1.0     0.430914     0.116891     0.072624    Uiso  ? N
   N7         1.0     0.228778     0.190978     0.820463    Uiso  ? N
   N8         1.0     0.110495     0.091285     0.580318    Uiso  ? N
   N9         1.0     0.884126     0.226288     0.320950    Uiso  ? N
   N10        1.0     0.773708     0.096832     0.108790    Uiso  ? N
   N11        1.0     0.539390     0.213663     0.826235    Uiso  ? N
   N12        1.0     0.433721     0.084386     0.574210    Uiso  ? N
   N13        1.0     0.222909     0.532895     0.348329    Uiso  ? N
   N14        1.0     0.112125     0.429875     0.076526    Uiso  ? N
   N15        1.0     0.879405     0.534605     0.816368    Uiso  ? N
   N16        1.0     0.775364     0.425470     0.579855    Uiso  ? N
   N17        1.0     0.560285     0.537095     0.330445    Uiso  ? N
   N18        1.0     0.434425     0.420766     0.076032    Uiso  ? N
   N19        1.0     0.234068     0.546124     0.818717    Uiso  ? N
   N20        1.0     0.110766     0.424882     0.588848    Uiso  ? N
   N21        1.0     0.901812     0.513860     0.330950    Uiso  ? N
   N22        1.0     0.797525     0.422984     0.067351    Uiso  ? N
   N23        1.0     0.559708     0.533071     0.837143    Uiso  ? N
   N24        1.0     0.438645     0.446883     0.575598    Uiso  ? N
   N25        1.0     0.231734     0.852880     0.365116    Uiso  ? N
   N26        1.0     0.109971     0.746388     0.134155    Uiso  ? N
   N27        1.0     0.910375     0.863175     0.883279    Uiso  ? N
   N28        1.0     0.772281     0.762210     0.580831    Uiso  ? N
   N29        1.0     0.532458     0.886655     0.326725    Uiso  ? N
   N30        1.0     0.446149     0.756999     0.095220    Uiso  ? N
   N31        1.0     0.221480     0.873128     0.870921    Uiso  ? N
   N32        1.0     0.107833     0.768852     0.619479    Uiso  ? N
   N33        1.0     0.910279     0.858526     0.374925    Uiso  ? N
   N34        1.0     0.794467     0.748147     0.115966    Uiso  ? N
   N35        1.0     0.541995     0.881910     0.838020    Uiso  ? N
   N36        1.0     0.444227     0.759361     0.606191    Uiso  ? N
