
#======================================================================
# CRYSTAL DATA
#----------------------------------------------------------------------
data_VESTA_phase_1

_chemical_name_common                  'Mg   Al   Hf   N '
_cell_length_a                         9.735191
_cell_length_b                         9.745387
_cell_length_c                         10.155946
_cell_angle_alpha                      90.098122
_cell_angle_beta                       89.993195
_cell_angle_gamma                      60.101032
_cell_volume                           835.285461
_space_group_name_H-M_alt              'P 1'
_space_group_IT_number                 1

loop_
_space_group_symop_operation_xyz
   'x, y, z'

loop_
   _atom_site_label
   _atom_site_occupancy
   _atom_site_fract_x
   _atom_site_fract_y
   _atom_site_fract_z
   _atom_site_adp_type
   _atom_site_U_iso_or_equiv
   _atom_site_type_symbol
   Mg1        1.0     0.121095     0.088880     0.402325    Uiso  ? Mg
   Mg2        1.0     0.556418     0.543113     0.153329    Uiso  ? Mg
   Mg3        1.0     0.227297     0.867430     0.153623    Uiso  ? Mg
   Mg4        1.0     0.768738     0.759727     0.917057    Uiso  ? Mg
   Mg5        1.0     0.542692     0.875078     0.150150    Uiso  ? Mg
   Al1        1.0     0.221724     0.206125     0.157081    Uiso  ? Al
   Al2        1.0     0.897858     0.207881     0.657264    Uiso  ? Al
   Al3        1.0     0.430104     0.096326     0.401831    Uiso  ? Al
   Al4        1.0     0.535762     0.215374     0.157646    Uiso  ? Al
   Al5        1.0     0.117968     0.087929     0.906137    Uiso  ? Al
   Al6        1.0     0.216238     0.200317     0.652991    Uiso  ? Al
   Al7        1.0     0.898807     0.216721     0.152965    Uiso  ? Al
   Al8        1.0     0.438321     0.088244     0.909571    Uiso  ? Al
   Al9        1.0     0.119322     0.420907     0.406276    Uiso  ? Al
   Al10       1.0     0.221344     0.540855     0.157777    Uiso  ? Al
   Al11       1.0     0.773412     0.433029     0.905251    Uiso  ? Al
   Al12       1.0     0.885727     0.538738     0.652496    Uiso  ? Al
   Al13       1.0     0.437232     0.443247     0.400199    Uiso  ? Al
   Al14       1.0     0.218724     0.547996     0.651334    Uiso  ? Al
   Al15       1.0     0.775250     0.428005     0.408677    Uiso  ? Al
   Al16       1.0     0.893016     0.529061     0.157474    Uiso  ? Al
   Al17       1.0     0.441575     0.440556     0.911877    Uiso  ? Al
   Al18       1.0     0.555257     0.544383     0.653955    Uiso  ? Al
   Al19       1.0     0.126651     0.753734     0.408608    Uiso  ? Al
   Al20       1.0     0.897052     0.862221     0.657173    Uiso  ? Al
   Al21       1.0     0.438614     0.759350     0.410397    Uiso  ? Al
   Al22       1.0     0.119462     0.761787     0.905156    Uiso  ? Al
   Al23       1.0     0.220507     0.874552     0.654075    Uiso  ? Al
   Al24       1.0     0.904754     0.854907     0.154355    Uiso  ? Al
   Al25       1.0     0.441921     0.763925     0.903244    Uiso  ? Al
   Al26       1.0     0.551018     0.869550     0.656587    Uiso  ? Al
   Hf1        1.0     0.778299     0.094019     0.913294    Uiso  ? Hf
   Hf2        1.0     0.783511     0.097762     0.385052    Uiso  ? Hf
   Hf3        1.0     0.546592     0.210906     0.644391    Uiso  ? Hf
   Hf4        1.0     0.112029     0.429187     0.900265    Uiso  ? Hf
   Hf5        1.0     0.775680     0.756316     0.382541    Uiso  ? Hf
   N1         1.0     0.226248     0.214924     0.342938    Uiso  ? N
   N2         1.0     0.107313     0.107896     0.092104    Uiso  ? N
   N3         1.0     0.893670     0.210844     0.846723    Uiso  ? N
   N4         1.0     0.791052     0.088323     0.599966    Uiso  ? N
   N5         1.0     0.536940     0.216607     0.355404    Uiso  ? N
   N6         1.0     0.434168     0.110386     0.093521    Uiso  ? N
   N7         1.0     0.227597     0.193307     0.841755    Uiso  ? N
   N8         1.0     0.109110     0.094066     0.607375    Uiso  ? N
   N9         1.0     0.887342     0.223481     0.338771    Uiso  ? N
   N10        1.0     0.776567     0.093297     0.123539    Uiso  ? N
   N11        1.0     0.539589     0.214630     0.849931    Uiso  ? N
   N12        1.0     0.431981     0.089197     0.592241    Uiso  ? N
   N13        1.0     0.220327     0.538865     0.349246    Uiso  ? N
   N14        1.0     0.111157     0.428722     0.104845    Uiso  ? N
   N15        1.0     0.881118     0.534067     0.838260    Uiso  ? N
   N16        1.0     0.778424     0.425307     0.598331    Uiso  ? N
   N17        1.0     0.559470     0.539339     0.361778    Uiso  ? N
   N18        1.0     0.434932     0.423374     0.096667    Uiso  ? N
   N19        1.0     0.232177     0.547565     0.839108    Uiso  ? N
   N20        1.0     0.113210     0.427188     0.603223    Uiso  ? N
   N21        1.0     0.901774     0.514812     0.350523    Uiso  ? N
   N22        1.0     0.792035     0.422727     0.089345    Uiso  ? N
   N23        1.0     0.558065     0.534174     0.842742    Uiso  ? N
   N24        1.0     0.433456     0.446735     0.591186    Uiso  ? N
   N25        1.0     0.230981     0.855340     0.357791    Uiso  ? N
   N26        1.0     0.108043     0.748760     0.088515    Uiso  ? N
   N27        1.0     0.901697     0.866032     0.844716    Uiso  ? N
   N28        1.0     0.777681     0.761794     0.598136    Uiso  ? N
   N29        1.0     0.534858     0.881737     0.358829    Uiso  ? N
   N30        1.0     0.444395     0.758177     0.079616    Uiso  ? N
   N31        1.0     0.219790     0.873581     0.843648    Uiso  ? N
   N32        1.0     0.109647     0.761201     0.597748    Uiso  ? N
   N33        1.0     0.914987     0.859793     0.343681    Uiso  ? N
   N34        1.0     0.790137     0.750670     0.132907    Uiso  ? N
   N35        1.0     0.542516     0.882288     0.841683    Uiso  ? N
   N36        1.0     0.443673     0.760624     0.602778    Uiso  ? N
