
#======================================================================
# CRYSTAL DATA
#----------------------------------------------------------------------
data_VESTA_phase_1

_chemical_name_common                  'Mg   Al   Hf   N                      '
_cell_length_a                         9.795041
_cell_length_b                         9.817862
_cell_length_c                         10.197060
_cell_angle_alpha                      89.663284
_cell_angle_beta                       89.453499
_cell_angle_gamma                      60.020744
_cell_volume                           849.374831
_space_group_name_H-M_alt              'P 1'
_space_group_IT_number                 1

loop_
_space_group_symop_operation_xyz
   'x, y, z'

loop_
   _atom_site_label
   _atom_site_occupancy
   _atom_site_fract_x
   _atom_site_fract_y
   _atom_site_fract_z
   _atom_site_adp_type
   _atom_site_U_iso_or_equiv
   _atom_site_type_symbol
   Mg1        1.0     0.118854     0.088691     0.360375    Uiso  ? Mg
   Mg2        1.0     0.559349     0.539999     0.073210    Uiso  ? Mg
   Mg3        1.0     0.227117     0.864788     0.081735    Uiso  ? Mg
   Mg4        1.0     0.775427     0.765055     0.826784    Uiso  ? Mg
   Mg5        1.0     0.552059     0.877753     0.124698    Uiso  ? Mg
   Al1        1.0     0.224023     0.212370     0.137358    Uiso  ? Al
   Al2        1.0     0.892215     0.205719     0.566448    Uiso  ? Al
   Al3        1.0     0.428289     0.094949     0.390316    Uiso  ? Al
   Al4        1.0     0.536883     0.221594     0.062035    Uiso  ? Al
   Al5        1.0     0.123574     0.090314     0.894243    Uiso  ? Al
   Al6        1.0     0.214213     0.192483     0.637365    Uiso  ? Al
   Al7        1.0     0.894075     0.225280     0.071375    Uiso  ? Al
   Al8        1.0     0.436298     0.087014     0.884223    Uiso  ? Al
   Al9        1.0     0.119143     0.414705     0.398448    Uiso  ? Al
   Al10       1.0     0.226351     0.544005     0.075634    Uiso  ? Al
   Al11       1.0     0.767842     0.432114     0.809893    Uiso  ? Al
   Al12       1.0     0.887358     0.534294     0.617321    Uiso  ? Al
   Al13       1.0     0.435208     0.433574     0.320856    Uiso  ? Al
   Al14       1.0     0.219785     0.549712     0.573179    Uiso  ? Al
   Al15       1.0     0.771044     0.424750     0.325199    Uiso  ? Al
   Al16       1.0     0.898940     0.534337     0.135897    Uiso  ? Al
   Al17       1.0     0.442112     0.448756     0.820119    Uiso  ? Al
   Al18       1.0     0.551498     0.546294     0.566101    Uiso  ? Al
   Al19       1.0     0.122879     0.750948     0.322626    Uiso  ? Al
   Al20       1.0     0.901823     0.868192     0.576849    Uiso  ? Al
   Al21       1.0     0.436812     0.755133     0.315320    Uiso  ? Al
   Al22       1.0     0.123513     0.764371     0.821489    Uiso  ? Al
   Al23       1.0     0.225160     0.867769     0.567786    Uiso  ? Al
   Al24       1.0     0.905693     0.847176     0.072744    Uiso  ? Al
   Al25       1.0     0.439270     0.761865     0.820429    Uiso  ? Al
   Al26       1.0     0.547067     0.872740     0.628911    Uiso  ? Al
   Hf1        1.0     0.789360     0.091791     0.848514    Uiso  ? Hf
   Hf2        1.0     0.771822     0.096630     0.307357    Uiso  ? Hf
   Hf3        1.0     0.549705     0.209928     0.597570    Uiso  ? Hf
   Hf4        1.0     0.111049     0.429682     0.864110    Uiso  ? Hf
   Hf5        1.0     0.775539     0.756753     0.362059    Uiso  ? Hf
   N1         1.0     0.229512     0.217643     0.322745    Uiso  ? N
   N2         1.0     0.111315     0.111006     0.086065    Uiso  ? N
   N3         1.0     0.895101     0.224409     0.880839    Uiso  ? N
   N4         1.0     0.795177     0.083691     0.635945    Uiso  ? N
   N5         1.0     0.543642     0.213164     0.386518    Uiso  ? N
   N6         1.0     0.432372     0.109699     0.067629    Uiso  ? N
   N7         1.0     0.227845     0.190434     0.823028    Uiso  ? N
   N8         1.0     0.109022     0.091732     0.583888    Uiso  ? N
   N9         1.0     0.871733     0.214522     0.379117    Uiso  ? N
   N10        1.0     0.772403     0.100738     0.094877    Uiso  ? N
   N11        1.0     0.538319     0.221050     0.854733    Uiso  ? N
   N12        1.0     0.427231     0.089572     0.581041    Uiso  ? N
   N13        1.0     0.221320     0.538232     0.386172    Uiso  ? N
   N14        1.0     0.108244     0.430486     0.074086    Uiso  ? N
   N15        1.0     0.882567     0.534639     0.812300    Uiso  ? N
   N16        1.0     0.770224     0.420939     0.619908    Uiso  ? N
   N17        1.0     0.553557     0.534285     0.379353    Uiso  ? N
   N18        1.0     0.435775     0.419765     0.135327    Uiso  ? N
   N19        1.0     0.235376     0.553770     0.882388    Uiso  ? N
   N20        1.0     0.117901     0.419955     0.597126    Uiso  ? N
   N21        1.0     0.900411     0.512974     0.366715    Uiso  ? N
   N22        1.0     0.790717     0.424068     0.139769    Uiso  ? N
   N23        1.0     0.558759     0.541445     0.867246    Uiso  ? N
   N24        1.0     0.431278     0.450104     0.631812    Uiso  ? N
   N25        1.0     0.231006     0.847470     0.382701    Uiso  ? N
   N26        1.0     0.107406     0.749333     0.139820    Uiso  ? N
   N27        1.0     0.913535     0.853668     0.887642    Uiso  ? N
   N28        1.0     0.776991     0.764414     0.592621    Uiso  ? N
   N29        1.0     0.535390     0.882061     0.354297    Uiso  ? N
   N30        1.0     0.445763     0.755006     0.137400    Uiso  ? N
   N31        1.0     0.223494     0.873849     0.869756    Uiso  ? N
   N32        1.0     0.111755     0.759788     0.633981    Uiso  ? N
   N33        1.0     0.906726     0.874025     0.388832    Uiso  ? N
   N34        1.0     0.796636     0.753837     0.143600    Uiso  ? N
   N35        1.0     0.541539     0.884656     0.820963    Uiso  ? N
   N36        1.0     0.440987     0.756414     0.626286    Uiso  ? N
