
#======================================================================
# CRYSTAL DATA
#----------------------------------------------------------------------
data_VESTA_phase_1

_chemical_name_common                  'Mg   Al   Hf   N                      '
_cell_length_a                         9.789850
_cell_length_b                         9.796777
_cell_length_c                         10.105924
_cell_angle_alpha                      89.782402
_cell_angle_beta                       89.585068
_cell_angle_gamma                      60.059505
_cell_volume                           839.874905
_space_group_name_H-M_alt              'P 1'
_space_group_IT_number                 1

loop_
_space_group_symop_operation_xyz
   'x, y, z'

loop_
   _atom_site_label
   _atom_site_occupancy
   _atom_site_fract_x
   _atom_site_fract_y
   _atom_site_fract_z
   _atom_site_adp_type
   _atom_site_U_iso_or_equiv
   _atom_site_type_symbol
   Mg1        1.0     0.115678     0.086955     0.320967    Uiso  ? Mg
   Mg2        1.0     0.556637     0.540986     0.067902    Uiso  ? Mg
   Mg3        1.0     0.225267     0.873922     0.064147    Uiso  ? Mg
   Mg4        1.0     0.773897     0.758066     0.809049    Uiso  ? Mg
   Mg5        1.0     0.556733     0.862728     0.064982    Uiso  ? Mg
   Al1        1.0     0.220322     0.205380     0.098633    Uiso  ? Al
   Al2        1.0     0.891425     0.207972     0.567137    Uiso  ? Al
   Al3        1.0     0.435523     0.096128     0.377392    Uiso  ? Al
   Al4        1.0     0.537534     0.221569     0.059147    Uiso  ? Al
   Al5        1.0     0.119743     0.086267     0.806130    Uiso  ? Al
   Al6        1.0     0.207904     0.210636     0.563224    Uiso  ? Al
   Al7        1.0     0.905320     0.218953     0.058763    Uiso  ? Al
   Al8        1.0     0.434793     0.089167     0.878517    Uiso  ? Al
   Al9        1.0     0.115254     0.427728     0.310981    Uiso  ? Al
   Al10       1.0     0.225924     0.543118     0.073353    Uiso  ? Al
   Al11       1.0     0.771831     0.434665     0.813020    Uiso  ? Al
   Al12       1.0     0.889126     0.532907     0.563191    Uiso  ? Al
   Al13       1.0     0.439603     0.434830     0.314656    Uiso  ? Al
   Al14       1.0     0.215330     0.547710     0.558911    Uiso  ? Al
   Al15       1.0     0.776174     0.425864     0.313813    Uiso  ? Al
   Al16       1.0     0.887484     0.535850     0.069348    Uiso  ? Al
   Al17       1.0     0.440017     0.448779     0.815355    Uiso  ? Al
   Al18       1.0     0.553897     0.545278     0.563910    Uiso  ? Al
   Al19       1.0     0.123735     0.756185     0.313473    Uiso  ? Al
   Al20       1.0     0.899629     0.865579     0.569421    Uiso  ? Al
   Al21       1.0     0.436732     0.758519     0.311522    Uiso  ? Al
   Al22       1.0     0.123322     0.759542     0.813737    Uiso  ? Al
   Al23       1.0     0.224586     0.866357     0.565763    Uiso  ? Al
   Al24       1.0     0.905944     0.847066     0.061574    Uiso  ? Al
   Al25       1.0     0.443018     0.763202     0.811632    Uiso  ? Al
   Al26       1.0     0.549054     0.866211     0.576466    Uiso  ? Al
   Hf1        1.0     0.787345     0.088819     0.845482    Uiso  ? Hf
   Hf2        1.0     0.777059     0.100649     0.300296    Uiso  ? Hf
   Hf3        1.0     0.550711     0.209068     0.594532    Uiso  ? Hf
   Hf4        1.0     0.112933     0.429701     0.827150    Uiso  ? Hf
   Hf5        1.0     0.776705     0.757170     0.331704    Uiso  ? Hf
   N1         1.0     0.221186     0.218645     0.365636    Uiso  ? N
   N2         1.0     0.105507     0.106229     0.118829    Uiso  ? N
   N3         1.0     0.901476     0.216040     0.868004    Uiso  ? N
   N4         1.0     0.796338     0.082555     0.629508    Uiso  ? N
   N5         1.0     0.547843     0.212123     0.377511    Uiso  ? N
   N6         1.0     0.436385     0.108194     0.072984    Uiso  ? N
   N7         1.0     0.222296     0.195090     0.849609    Uiso  ? N
   N8         1.0     0.107704     0.093801     0.613201    Uiso  ? N
   N9         1.0     0.875408     0.217947     0.381255    Uiso  ? N
   N10        1.0     0.773543     0.098214     0.085154    Uiso  ? N
   N11        1.0     0.535959     0.221116     0.848152    Uiso  ? N
   N12        1.0     0.429950     0.090528     0.581241    Uiso  ? N
   N13        1.0     0.220265     0.539090     0.371219    Uiso  ? N
   N14        1.0     0.111726     0.431305     0.115487    Uiso  ? N
   N15        1.0     0.879885     0.532217     0.879826    Uiso  ? N
   N16        1.0     0.777242     0.427662     0.621854    Uiso  ? N
   N17        1.0     0.557987     0.534390     0.374526    Uiso  ? N
   N18        1.0     0.438266     0.421215     0.128999    Uiso  ? N
   N19        1.0     0.233897     0.549494     0.881529    Uiso  ? N
   N20        1.0     0.107915     0.432647     0.616031    Uiso  ? N
   N21        1.0     0.899775     0.517346     0.374351    Uiso  ? N
   N22        1.0     0.791552     0.420907     0.128669    Uiso  ? N
   N23        1.0     0.557794     0.540928     0.859208    Uiso  ? N
   N24        1.0     0.428034     0.451447     0.623451    Uiso  ? N
   N25        1.0     0.229162     0.853455     0.381028    Uiso  ? N
   N26        1.0     0.107232     0.753870     0.129713    Uiso  ? N
   N27        1.0     0.913170     0.849630     0.875125    Uiso  ? N
   N28        1.0     0.779639     0.758750     0.592447    Uiso  ? N
   N29        1.0     0.538583     0.875287     0.377766    Uiso  ? N
   N30        1.0     0.443954     0.758909     0.133540    Uiso  ? N
   N31        1.0     0.222715     0.873037     0.853258    Uiso  ? N
   N32        1.0     0.111243     0.757107     0.623724    Uiso  ? N
   N33        1.0     0.903745     0.874023     0.378106    Uiso  ? N
   N34        1.0     0.793960     0.751421     0.126001    Uiso  ? N
   N35        1.0     0.544434     0.877318     0.849322    Uiso  ? N
   N36        1.0     0.442911     0.757482     0.619813    Uiso  ? N
