
#======================================================================
# CRYSTAL DATA
#----------------------------------------------------------------------
data_VESTA_phase_1

_chemical_name_common                  'Mg   Al   Hf   N                      '
_cell_length_a                         9.733122
_cell_length_b                         9.743332
_cell_length_c                         10.160066
_cell_angle_alpha                      90.097404
_cell_angle_beta                       89.994156
_cell_angle_gamma                      60.105072
_cell_volume                           835.304390
_space_group_name_H-M_alt              'P 1'
_space_group_IT_number                 1

loop_
_space_group_symop_operation_xyz
   'x, y, z'

loop_
   _atom_site_label
   _atom_site_occupancy
   _atom_site_fract_x
   _atom_site_fract_y
   _atom_site_fract_z
   _atom_site_adp_type
   _atom_site_U_iso_or_equiv
   _atom_site_type_symbol
   Mg1        1.0     0.121133     0.088869     0.390809    Uiso  ? Mg
   Mg2        1.0     0.556407     0.543171     0.141733    Uiso  ? Mg
   Mg3        1.0     0.227223     0.867404     0.142188    Uiso  ? Mg
   Mg4        1.0     0.768855     0.759660     0.905474    Uiso  ? Mg
   Mg5        1.0     0.542674     0.875080     0.138571    Uiso  ? Mg
   Al1        1.0     0.221750     0.206082     0.145503    Uiso  ? Al
   Al2        1.0     0.897929     0.207811     0.645682    Uiso  ? Al
   Al3        1.0     0.430160     0.096353     0.390229    Uiso  ? Al
   Al4        1.0     0.535779     0.215409     0.145982    Uiso  ? Al
   Al5        1.0     0.118033     0.087845     0.894574    Uiso  ? Al
   Al6        1.0     0.216309     0.200286     0.641422    Uiso  ? Al
   Al7        1.0     0.898785     0.216715     0.141348    Uiso  ? Al
   Al8        1.0     0.438392     0.088171     0.897973    Uiso  ? Al
   Al9        1.0     0.119372     0.420892     0.394630    Uiso  ? Al
   Al10       1.0     0.221316     0.540956     0.146275    Uiso  ? Al
   Al11       1.0     0.773494     0.432982     0.893638    Uiso  ? Al
   Al12       1.0     0.885874     0.538636     0.640901    Uiso  ? Al
   Al13       1.0     0.437262     0.443242     0.388604    Uiso  ? Al
   Al14       1.0     0.218801     0.547863     0.639786    Uiso  ? Al
   Al15       1.0     0.775290     0.427997     0.397080    Uiso  ? Al
   Al16       1.0     0.892999     0.529096     0.145907    Uiso  ? Al
   Al17       1.0     0.441623     0.440550     0.900304    Uiso  ? Al
   Al18       1.0     0.555340     0.544335     0.642383    Uiso  ? Al
   Al19       1.0     0.126667     0.753745     0.397317    Uiso  ? Al
   Al20       1.0     0.897118     0.862155     0.645585    Uiso  ? Al
   Al21       1.0     0.438640     0.759358     0.398857    Uiso  ? Al
   Al22       1.0     0.119507     0.761719     0.893637    Uiso  ? Al
   Al23       1.0     0.220587     0.874483     0.642578    Uiso  ? Al
   Al24       1.0     0.904753     0.854960     0.142839    Uiso  ? Al
   Al25       1.0     0.441949     0.763895     0.891668    Uiso  ? Al
   Al26       1.0     0.551117     0.869486     0.645005    Uiso  ? Al
   Hf1        1.0     0.778404     0.093910     0.901729    Uiso  ? Hf
   Hf2        1.0     0.783514     0.097793     0.373490    Uiso  ? Hf
   Hf3        1.0     0.546700     0.210853     0.632901    Uiso  ? Hf
   Hf4        1.0     0.112133     0.429104     0.888850    Uiso  ? Hf
   Hf5        1.0     0.775722     0.756324     0.370983    Uiso  ? Hf
   N1         1.0     0.226295     0.214889     0.331285    Uiso  ? N
   N2         1.0     0.107312     0.107858     0.080466    Uiso  ? N
   N3         1.0     0.893719     0.210788     0.835072    Uiso  ? N
   N4         1.0     0.791134     0.088248     0.588293    Uiso  ? N
   N5         1.0     0.536952     0.216645     0.343639    Uiso  ? N
   N6         1.0     0.434175     0.110390     0.081836    Uiso  ? N
   N7         1.0     0.227656     0.193259     0.830127    Uiso  ? N
   N8         1.0     0.109195     0.093983     0.595788    Uiso  ? N
   N9         1.0     0.887385     0.223485     0.327095    Uiso  ? N
   N10        1.0     0.776599     0.093302     0.111884    Uiso  ? N
   N11        1.0     0.539685     0.214587     0.838351    Uiso  ? N
   N12        1.0     0.432080     0.089164     0.580598    Uiso  ? N
   N13        1.0     0.220320     0.538952     0.337678    Uiso  ? N
   N14        1.0     0.111170     0.428741     0.093348    Uiso  ? N
   N15        1.0     0.881282     0.533975     0.826611    Uiso  ? N
   N16        1.0     0.778500     0.425242     0.586689    Uiso  ? N
   N17        1.0     0.559503     0.539360     0.350136    Uiso  ? N
   N18        1.0     0.434878     0.423454     0.085019    Uiso  ? N
   N19        1.0     0.232224     0.547498     0.827484    Uiso  ? N
   N20        1.0     0.113299     0.427099     0.591509    Uiso  ? N
   N21        1.0     0.901795     0.514822     0.338873    Uiso  ? N
   N22        1.0     0.792040     0.422743     0.077673    Uiso  ? N
   N23        1.0     0.558128     0.534162     0.831109    Uiso  ? N
   N24        1.0     0.433542     0.446662     0.579550    Uiso  ? N
   N25        1.0     0.230981     0.855318     0.346269    Uiso  ? N
   N26        1.0     0.107975     0.748784     0.076837    Uiso  ? N
   N27        1.0     0.901789     0.865960     0.833019    Uiso  ? N
   N28        1.0     0.777767     0.761713     0.586491    Uiso  ? N
   N29        1.0     0.534881     0.881748     0.347191    Uiso  ? N
   N30        1.0     0.444267     0.758250     0.067976    Uiso  ? N
   N31        1.0     0.219832     0.873500     0.832040    Uiso  ? N
   N32        1.0     0.109730     0.761101     0.586185    Uiso  ? N
   N33        1.0     0.915068     0.859805     0.332079    Uiso  ? N
   N34        1.0     0.790125     0.750713     0.121294    Uiso  ? N
   N35        1.0     0.542615     0.882210     0.830039    Uiso  ? N
   N36        1.0     0.443732     0.760581     0.591172    Uiso  ? N
