
#======================================================================
# CRYSTAL DATA
#----------------------------------------------------------------------
data_VESTA_phase_1

_chemical_name_common                  'Mg   Al   Hf   N                      '
_cell_length_a                         9.849159
_cell_length_b                         9.864109
_cell_length_c                         9.962874
_cell_angle_alpha                      89.952827
_cell_angle_beta                       89.411819
_cell_angle_gamma                      60.114220
_cell_volume                           839.156201
_space_group_name_H-M_alt              'P 1'
_space_group_IT_number                 1

loop_
_space_group_symop_operation_xyz
   'x, y, z'

loop_
   _atom_site_label
   _atom_site_occupancy
   _atom_site_fract_x
   _atom_site_fract_y
   _atom_site_fract_z
   _atom_site_adp_type
   _atom_site_U_iso_or_equiv
   _atom_site_type_symbol
   Mg1        1.0     0.117048     0.095015     0.368943    Uiso  ? Mg
   Mg2        1.0     0.567130     0.524878     0.120297    Uiso  ? Mg
   Mg3        1.0     0.211773     0.874763     0.087346    Uiso  ? Mg
   Mg4        1.0     0.772235     0.758159     0.881440    Uiso  ? Mg
   Mg5        1.0     0.551287     0.883988     0.113685    Uiso  ? Mg
   Al1        1.0     0.220868     0.211869     0.134479    Uiso  ? Al
   Al2        1.0     0.900035     0.204767     0.630187    Uiso  ? Al
   Al3        1.0     0.428402     0.094143     0.381000    Uiso  ? Al
   Al4        1.0     0.530382     0.217789     0.140450    Uiso  ? Al
   Al5        1.0     0.117921     0.090233     0.885153    Uiso  ? Al
   Al6        1.0     0.218404     0.191442     0.629678    Uiso  ? Al
   Al7        1.0     0.900137     0.222887     0.133188    Uiso  ? Al
   Al8        1.0     0.436855     0.093392     0.886344    Uiso  ? Al
   Al9        1.0     0.115245     0.419473     0.390777    Uiso  ? Al
   Al10       1.0     0.223257     0.533346     0.113963    Uiso  ? Al
   Al11       1.0     0.778497     0.429975     0.881414    Uiso  ? Al
   Al12       1.0     0.879047     0.541046     0.628421    Uiso  ? Al
   Al13       1.0     0.440379     0.446261     0.383403    Uiso  ? Al
   Al14       1.0     0.217249     0.548594     0.594042    Uiso  ? Al
   Al15       1.0     0.770159     0.431241     0.387603    Uiso  ? Al
   Al16       1.0     0.897982     0.527336     0.133769    Uiso  ? Al
   Al17       1.0     0.441295     0.436580     0.886461    Uiso  ? Al
   Al18       1.0     0.552447     0.549557     0.640552    Uiso  ? Al
   Al19       1.0     0.123691     0.750138     0.322112    Uiso  ? Al
   Al20       1.0     0.898381     0.864098     0.570433    Uiso  ? Al
   Al21       1.0     0.438300     0.759427     0.300777    Uiso  ? Al
   Al22       1.0     0.122109     0.768736     0.813638    Uiso  ? Al
   Al23       1.0     0.233293     0.864929     0.560887    Uiso  ? Al
   Al24       1.0     0.908457     0.846746     0.079238    Uiso  ? Al
   Al25       1.0     0.441474     0.762435     0.894780    Uiso  ? Al
   Al26       1.0     0.546689     0.866828     0.642883    Uiso  ? Al
   Hf1        1.0     0.776480     0.100443     0.891046    Uiso  ? Hf
   Hf2        1.0     0.780772     0.097795     0.347198    Uiso  ? Hf
   Hf3        1.0     0.547547     0.209251     0.616293    Uiso  ? Hf
   Hf4        1.0     0.112309     0.429442     0.860837    Uiso  ? Hf
   Hf5        1.0     0.769789     0.756298     0.352964    Uiso  ? Hf
   N1         1.0     0.226414     0.218205     0.323212    Uiso  ? N
   N2         1.0     0.105907     0.116160     0.077712    Uiso  ? N
   N3         1.0     0.898069     0.209488     0.825073    Uiso  ? N
   N4         1.0     0.789594     0.091606     0.580024    Uiso  ? N
   N5         1.0     0.534008     0.218585     0.341241    Uiso  ? N
   N6         1.0     0.430927     0.117005     0.072778    Uiso  ? N
   N7         1.0     0.229475     0.189926     0.820455    Uiso  ? N
   N8         1.0     0.110465     0.091006     0.580136    Uiso  ? N
   N9         1.0     0.884147     0.226243     0.321065    Uiso  ? N
   N10        1.0     0.773950     0.096501     0.109140    Uiso  ? N
   N11        1.0     0.539789     0.213295     0.826646    Uiso  ? N
   N12        1.0     0.433610     0.084441     0.574139    Uiso  ? N
   N13        1.0     0.220508     0.536334     0.366965    Uiso  ? N
   N14        1.0     0.111692     0.429235     0.075242    Uiso  ? N
   N15        1.0     0.878217     0.535515     0.816399    Uiso  ? N
   N16        1.0     0.775292     0.425475     0.579792    Uiso  ? N
   N17        1.0     0.560283     0.537155     0.330608    Uiso  ? N
   N18        1.0     0.436696     0.419920     0.076703    Uiso  ? N
   N19        1.0     0.233077     0.547956     0.830462    Uiso  ? N
   N20        1.0     0.109730     0.423763     0.590702    Uiso  ? N
   N21        1.0     0.901666     0.513845     0.330748    Uiso  ? N
   N22        1.0     0.797626     0.422933     0.067504    Uiso  ? N
   N23        1.0     0.560285     0.533205     0.837329    Uiso  ? N
   N24        1.0     0.440070     0.446262     0.577650    Uiso  ? N
   N25        1.0     0.231491     0.852582     0.364883    Uiso  ? N
   N26        1.0     0.110165     0.745477     0.135004    Uiso  ? N
   N27        1.0     0.910446     0.863412     0.883768    Uiso  ? N
   N28        1.0     0.772314     0.762304     0.580667    Uiso  ? N
   N29        1.0     0.532485     0.886695     0.326737    Uiso  ? N
   N30        1.0     0.446023     0.757006     0.095409    Uiso  ? N
   N31        1.0     0.221322     0.873246     0.871170    Uiso  ? N
   N32        1.0     0.107982     0.768309     0.620708    Uiso  ? N
   N33        1.0     0.910453     0.858582     0.374731    Uiso  ? N
   N34        1.0     0.794531     0.748161     0.116142    Uiso  ? N
   N35        1.0     0.542090     0.881829     0.838128    Uiso  ? N
   N36        1.0     0.444229     0.759422     0.606145    Uiso  ? N
