
#======================================================================
# CRYSTAL DATA
#----------------------------------------------------------------------
data_VESTA_phase_1

_chemical_name_common                  'Mg   Al   Hf   N                      '
_cell_length_a                         9.850253
_cell_length_b                         9.864298
_cell_length_c                         9.963926
_cell_angle_alpha                      89.947815
_cell_angle_beta                       89.406609
_cell_angle_gamma                      60.110226
_cell_volume                           839.319860
_space_group_name_H-M_alt              'P 1'
_space_group_IT_number                 1

loop_
_space_group_symop_operation_xyz
   'x, y, z'

loop_
   _atom_site_label
   _atom_site_occupancy
   _atom_site_fract_x
   _atom_site_fract_y
   _atom_site_fract_z
   _atom_site_adp_type
   _atom_site_U_iso_or_equiv
   _atom_site_type_symbol
   Mg1        1.0     0.117072     0.094943     0.368911    Uiso  ? Mg
   Mg2        1.0     0.567230     0.524895     0.120411    Uiso  ? Mg
   Mg3        1.0     0.211768     0.874819     0.087407    Uiso  ? Mg
   Mg4        1.0     0.772229     0.758214     0.881490    Uiso  ? Mg
   Mg5        1.0     0.551272     0.883982     0.113706    Uiso  ? Mg
   Al1        1.0     0.220822     0.212000     0.134426    Uiso  ? Al
   Al2        1.0     0.900043     0.204757     0.630201    Uiso  ? Al
   Al3        1.0     0.428389     0.094145     0.381040    Uiso  ? Al
   Al4        1.0     0.530330     0.217778     0.140608    Uiso  ? Al
   Al5        1.0     0.117942     0.090220     0.885211    Uiso  ? Al
   Al6        1.0     0.218453     0.191279     0.629707    Uiso  ? Al
   Al7        1.0     0.900150     0.222893     0.133221    Uiso  ? Al
   Al8        1.0     0.436862     0.093361     0.886390    Uiso  ? Al
   Al9        1.0     0.115056     0.419388     0.390727    Uiso  ? Al
   Al10       1.0     0.222979     0.534288     0.107781    Uiso  ? Al
   Al11       1.0     0.778510     0.430004     0.881458    Uiso  ? Al
   Al12       1.0     0.878903     0.541092     0.628469    Uiso  ? Al
   Al13       1.0     0.440522     0.446161     0.383418    Uiso  ? Al
   Al14       1.0     0.216729     0.549048     0.589490    Uiso  ? Al
   Al15       1.0     0.770162     0.431223     0.387633    Uiso  ? Al
   Al16       1.0     0.898061     0.527302     0.133703    Uiso  ? Al
   Al17       1.0     0.442036     0.436215     0.886436    Uiso  ? Al
   Al18       1.0     0.552446     0.549565     0.640607    Uiso  ? Al
   Al19       1.0     0.123942     0.749567     0.321958    Uiso  ? Al
   Al20       1.0     0.898468     0.864049     0.570518    Uiso  ? Al
   Al21       1.0     0.438260     0.759449     0.300826    Uiso  ? Al
   Al22       1.0     0.122250     0.768549     0.813821    Uiso  ? Al
   Al23       1.0     0.233292     0.864864     0.560952    Uiso  ? Al
   Al24       1.0     0.908302     0.846909     0.079344    Uiso  ? Al
   Al25       1.0     0.441445     0.762460     0.894793    Uiso  ? Al
   Al26       1.0     0.546684     0.866834     0.642910    Uiso  ? Al
   Hf1        1.0     0.776515     0.100459     0.891122    Uiso  ? Hf
   Hf2        1.0     0.780817     0.097764     0.347266    Uiso  ? Hf
   Hf3        1.0     0.547535     0.209254     0.616362    Uiso  ? Hf
   Hf4        1.0     0.112179     0.429332     0.860094    Uiso  ? Hf
   Hf5        1.0     0.769810     0.756318     0.352970    Uiso  ? Hf
   N1         1.0     0.226418     0.218245     0.323190    Uiso  ? N
   N2         1.0     0.105911     0.116153     0.077778    Uiso  ? N
   N3         1.0     0.898093     0.209502     0.825080    Uiso  ? N
   N4         1.0     0.789630     0.091574     0.580034    Uiso  ? N
   N5         1.0     0.533962     0.218650     0.341317    Uiso  ? N
   N6         1.0     0.430928     0.117029     0.072808    Uiso  ? N
   N7         1.0     0.229615     0.189689     0.820441    Uiso  ? N
   N8         1.0     0.110462     0.090935     0.580088    Uiso  ? N
   N9         1.0     0.884147     0.226229     0.321082    Uiso  ? N
   N10        1.0     0.774015     0.096406     0.109230    Uiso  ? N
   N11        1.0     0.539840     0.213234     0.826673    Uiso  ? N
   N12        1.0     0.433596     0.084443     0.574123    Uiso  ? N
   N13        1.0     0.220018     0.537012     0.370790    Uiso  ? N
   N14        1.0     0.111532     0.429024     0.074951    Uiso  ? N
   N15        1.0     0.877941     0.535700     0.816393    Uiso  ? N
   N16        1.0     0.775288     0.425467     0.579767    Uiso  ? N
   N17        1.0     0.560266     0.537165     0.330682    Uiso  ? N
   N18        1.0     0.437334     0.419663     0.076887    Uiso  ? N
   N19        1.0     0.232683     0.548613     0.834951    Uiso  ? N
   N20        1.0     0.109625     0.423622     0.591192    Uiso  ? N
   N21        1.0     0.901653     0.513840     0.330727    Uiso  ? N
   N22        1.0     0.797625     0.422935     0.067537    Uiso  ? N
   N23        1.0     0.560414     0.533247     0.837303    Uiso  ? N
   N24        1.0     0.440133     0.446246     0.578177    Uiso  ? N
   N25        1.0     0.231423     0.852441     0.364865    Uiso  ? N
   N26        1.0     0.110225     0.745229     0.135125    Uiso  ? N
   N27        1.0     0.910400     0.863503     0.883878    Uiso  ? N
   N28        1.0     0.772319     0.762321     0.580629    Uiso  ? N
   N29        1.0     0.532486     0.886697     0.326741    Uiso  ? N
   N30        1.0     0.445999     0.757003     0.095450    Uiso  ? N
   N31        1.0     0.221305     0.873312     0.871222    Uiso  ? N
   N32        1.0     0.108145     0.767919     0.621203    Uiso  ? N
   N33        1.0     0.910579     0.858522     0.374736    Uiso  ? N
   N34        1.0     0.794535     0.748170     0.116192    Uiso  ? N
   N35        1.0     0.542109     0.881814     0.838141    Uiso  ? N
   N36        1.0     0.444234     0.759443     0.606134    Uiso  ? N
