
#======================================================================
# CRYSTAL DATA
#----------------------------------------------------------------------
data_VESTA_phase_1

_chemical_name_common                  'Mg   Al   Hf   N                      '
_cell_length_a                         9.748215
_cell_length_b                         9.750380
_cell_length_c                         10.128205
_cell_angle_alpha                      89.993103
_cell_angle_beta                       89.754051
_cell_angle_gamma                      60.112934
_cell_volume                           834.637053
_space_group_name_H-M_alt              'P 1'
_space_group_IT_number                 1

loop_
_space_group_symop_operation_xyz
   'x, y, z'

loop_
   _atom_site_label
   _atom_site_occupancy
   _atom_site_fract_x
   _atom_site_fract_y
   _atom_site_fract_z
   _atom_site_adp_type
   _atom_site_U_iso_or_equiv
   _atom_site_type_symbol
   Mg1        1.0     0.118688     0.089223     0.317173    Uiso  ? Mg
   Mg2        1.0     0.555742     0.541990     0.068065    Uiso  ? Mg
   Mg3        1.0     0.225315     0.872444     0.065123    Uiso  ? Mg
   Mg4        1.0     0.772533     0.758535     0.808504    Uiso  ? Mg
   Mg5        1.0     0.552461     0.869010     0.063899    Uiso  ? Mg
   Al1        1.0     0.220610     0.201095     0.070976    Uiso  ? Al
   Al2        1.0     0.894068     0.208019     0.568635    Uiso  ? Al
   Al3        1.0     0.432591     0.098836     0.309895    Uiso  ? Al
   Al4        1.0     0.533520     0.218112     0.061125    Uiso  ? Al
   Al5        1.0     0.119762     0.087492     0.811768    Uiso  ? Al
   Al6        1.0     0.216705     0.205948     0.558368    Uiso  ? Al
   Al7        1.0     0.902312     0.218183     0.059599    Uiso  ? Al
   Al8        1.0     0.437276     0.086384     0.823473    Uiso  ? Al
   Al9        1.0     0.118087     0.421784     0.307969    Uiso  ? Al
   Al10       1.0     0.225065     0.542932     0.073484    Uiso  ? Al
   Al11       1.0     0.771345     0.435165     0.812915    Uiso  ? Al
   Al12       1.0     0.890713     0.531737     0.563002    Uiso  ? Al
   Al13       1.0     0.439029     0.436342     0.312499    Uiso  ? Al
   Al14       1.0     0.215947     0.545950     0.559180    Uiso  ? Al
   Al15       1.0     0.776685     0.425478     0.314391    Uiso  ? Al
   Al16       1.0     0.886880     0.536189     0.070150    Uiso  ? Al
   Al17       1.0     0.440349     0.445372     0.816636    Uiso  ? Al
   Al18       1.0     0.554609     0.545316     0.565160    Uiso  ? Al
   Al19       1.0     0.123884     0.755579     0.314273    Uiso  ? Al
   Al20       1.0     0.899265     0.865400     0.569363    Uiso  ? Al
   Al21       1.0     0.435864     0.760560     0.313614    Uiso  ? Al
   Al22       1.0     0.122652     0.760623     0.813383    Uiso  ? Al
   Al23       1.0     0.224370     0.868304     0.567211    Uiso  ? Al
   Al24       1.0     0.905049     0.848312     0.061454    Uiso  ? Al
   Al25       1.0     0.443988     0.762657     0.812347    Uiso  ? Al
   Al26       1.0     0.545616     0.872253     0.570069    Uiso  ? Al
   Hf1        1.0     0.783395     0.090708     0.845169    Uiso  ? Hf
   Hf2        1.0     0.780660     0.098715     0.299057    Uiso  ? Hf
   Hf3        1.0     0.550830     0.207823     0.579215    Uiso  ? Hf
   Hf4        1.0     0.112496     0.429954     0.828853    Uiso  ? Hf
   Hf5        1.0     0.775173     0.757390     0.331522    Uiso  ? Hf
   N1         1.0     0.227332     0.216128     0.374632    Uiso  ? N
   N2         1.0     0.104323     0.106272     0.116988    Uiso  ? N
   N3         1.0     0.900142     0.216876     0.868537    Uiso  ? N
   N4         1.0     0.793628     0.084725     0.629176    Uiso  ? N
   N5         1.0     0.547391     0.209340     0.371560    Uiso  ? N
   N6         1.0     0.436477     0.108006     0.121865    Uiso  ? N
   N7         1.0     0.225433     0.193201     0.876990    Uiso  ? N
   N8         1.0     0.110869     0.096141     0.619182    Uiso  ? N
   N9         1.0     0.877881     0.217004     0.382841    Uiso  ? N
   N10        1.0     0.774537     0.097197     0.085517    Uiso  ? N
   N11        1.0     0.531449     0.219953     0.861356    Uiso  ? N
   N12        1.0     0.429781     0.091492     0.626270    Uiso  ? N
   N13        1.0     0.220563     0.537645     0.371410    Uiso  ? N
   N14        1.0     0.112317     0.428613     0.112634    Uiso  ? N
   N15        1.0     0.879664     0.533181     0.880510    Uiso  ? N
   N16        1.0     0.777719     0.428019     0.622595    Uiso  ? N
   N17        1.0     0.558130     0.534896     0.376047    Uiso  ? N
   N18        1.0     0.437852     0.422060     0.127842    Uiso  ? N
   N19        1.0     0.232201     0.550644     0.881208    Uiso  ? N
   N20        1.0     0.110303     0.429267     0.619691    Uiso  ? N
   N21        1.0     0.901634     0.516282     0.374424    Uiso  ? N
   N22        1.0     0.790323     0.421104     0.129618    Uiso  ? N
   N23        1.0     0.557217     0.540379     0.859230    Uiso  ? N
   N24        1.0     0.430542     0.447442     0.624559    Uiso  ? N
   N25        1.0     0.227611     0.855847     0.382630    Uiso  ? N
   N26        1.0     0.106690     0.753868     0.130667    Uiso  ? N
   N27        1.0     0.912073     0.851120     0.874892    Uiso  ? N
   N28        1.0     0.778050     0.759359     0.592149    Uiso  ? N
   N29        1.0     0.533740     0.886246     0.379133    Uiso  ? N
   N30        1.0     0.444241     0.760074     0.136298    Uiso  ? N
   N31        1.0     0.223708     0.872870     0.854376    Uiso  ? N
   N32        1.0     0.111662     0.756999     0.623929    Uiso  ? N
   N33        1.0     0.904053     0.872699     0.378996    Uiso  ? N
   N34        1.0     0.793022     0.752545     0.126979    Uiso  ? N
   N35        1.0     0.544754     0.876403     0.858804    Uiso  ? N
   N36        1.0     0.444024     0.759232     0.620258    Uiso  ? N
