
#======================================================================
# CRYSTAL DATA
#----------------------------------------------------------------------
data_VESTA_phase_1

_chemical_name_common                  'Mg   Al   Hf   N                      '
_cell_length_a                         9.730123
_cell_length_b                         9.733523
_cell_length_c                         10.166648
_cell_angle_alpha                      90.103447
_cell_angle_beta                       89.933670
_cell_angle_gamma                      60.079845
_cell_volume                           834.533414
_space_group_name_H-M_alt              'P 1'
_space_group_IT_number                 1

loop_
_space_group_symop_operation_xyz
   'x, y, z'

loop_
   _atom_site_label
   _atom_site_occupancy
   _atom_site_fract_x
   _atom_site_fract_y
   _atom_site_fract_z
   _atom_site_adp_type
   _atom_site_U_iso_or_equiv
   _atom_site_type_symbol
   Mg1        1.0     0.119135     0.089942     0.308679    Uiso  ? Mg
   Mg2        1.0     0.555713     0.542311     0.059307    Uiso  ? Mg
   Mg3        1.0     0.225795     0.871796     0.057023    Uiso  ? Mg
   Mg4        1.0     0.772296     0.758133     0.800079    Uiso  ? Mg
   Mg5        1.0     0.550899     0.871228     0.054062    Uiso  ? Mg
   Al1        1.0     0.221520     0.200123     0.061672    Uiso  ? Al
   Al2        1.0     0.894355     0.208088     0.560296    Uiso  ? Al
   Al3        1.0     0.432099     0.099087     0.300458    Uiso  ? Al
   Al4        1.0     0.532138     0.217504     0.052329    Uiso  ? Al
   Al5        1.0     0.119685     0.086808     0.803967    Uiso  ? Al
   Al6        1.0     0.216772     0.206109     0.550417    Uiso  ? Al
   Al7        1.0     0.902257     0.217875     0.050770    Uiso  ? Al
   Al8        1.0     0.436989     0.085706     0.808468    Uiso  ? Al
   Al9        1.0     0.118628     0.421587     0.299626    Uiso  ? Al
   Al10       1.0     0.224665     0.542989     0.064716    Uiso  ? Al
   Al11       1.0     0.771524     0.434756     0.804394    Uiso  ? Al
   Al12       1.0     0.890909     0.532309     0.554274    Uiso  ? Al
   Al13       1.0     0.439224     0.437034     0.302686    Uiso  ? Al
   Al14       1.0     0.216421     0.545745     0.550830    Uiso  ? Al
   Al15       1.0     0.776933     0.425559     0.306036    Uiso  ? Al
   Al16       1.0     0.886870     0.536026     0.061847    Uiso  ? Al
   Al17       1.0     0.440598     0.443645     0.808414    Uiso  ? Al
   Al18       1.0     0.555042     0.545225     0.556729    Uiso  ? Al
   Al19       1.0     0.123658     0.755647     0.305960    Uiso  ? Al
   Al20       1.0     0.898792     0.865749     0.560656    Uiso  ? Al
   Al21       1.0     0.435782     0.761319     0.305559    Uiso  ? Al
   Al22       1.0     0.122350     0.760541     0.804675    Uiso  ? Al
   Al23       1.0     0.224292     0.868477     0.558589    Uiso  ? Al
   Al24       1.0     0.904617     0.848885     0.052210    Uiso  ? Al
   Al25       1.0     0.444197     0.762075     0.803650    Uiso  ? Al
   Al26       1.0     0.546169     0.871836     0.560779    Uiso  ? Al
   Hf1        1.0     0.781561     0.091250     0.836442    Uiso  ? Hf
   Hf2        1.0     0.782077     0.098332     0.288783    Uiso  ? Hf
   Hf3        1.0     0.551452     0.207938     0.566420    Uiso  ? Hf
   Hf4        1.0     0.112619     0.429161     0.820403    Uiso  ? Hf
   Hf5        1.0     0.774392     0.757838     0.321528    Uiso  ? Hf
   N1         1.0     0.228093     0.216406     0.367813    Uiso  ? N
   N2         1.0     0.104664     0.106099     0.108879    Uiso  ? N
   N3         1.0     0.899903     0.216418     0.860450    Uiso  ? N
   N4         1.0     0.792786     0.085682     0.620841    Uiso  ? N
   N5         1.0     0.548498     0.209271     0.360436    Uiso  ? N
   N6         1.0     0.435868     0.108265     0.116309    Uiso  ? N
   N7         1.0     0.226702     0.191826     0.868409    Uiso  ? N
   N8         1.0     0.111406     0.095965     0.611734    Uiso  ? N
   N9         1.0     0.878259     0.216950     0.374990    Uiso  ? N
   N10        1.0     0.774544     0.096740     0.076098    Uiso  ? N
   N11        1.0     0.529584     0.219291     0.854656    Uiso  ? N
   N12        1.0     0.430721     0.091677     0.617942    Uiso  ? N
   N13        1.0     0.221198     0.537570     0.363410    Uiso  ? N
   N14        1.0     0.112676     0.428022     0.104637    Uiso  ? N
   N15        1.0     0.879766     0.532756     0.872952    Uiso  ? N
   N16        1.0     0.778294     0.428285     0.614540    Uiso  ? N
   N17        1.0     0.558290     0.535297     0.368049    Uiso  ? N
   N18        1.0     0.437825     0.422208     0.118870    Uiso  ? N
   N19        1.0     0.231857     0.550476     0.872869    Uiso  ? N
   N20        1.0     0.110733     0.429318     0.611881    Uiso  ? N
   N21        1.0     0.901873     0.516794     0.366225    Uiso  ? N
   N22        1.0     0.790442     0.420746     0.121858    Uiso  ? N
   N23        1.0     0.557281     0.539585     0.850950    Uiso  ? N
   N24        1.0     0.431755     0.446284     0.616395    Uiso  ? N
   N25        1.0     0.227303     0.856433     0.374550    Uiso  ? N
   N26        1.0     0.106356     0.754063     0.122770    Uiso  ? N
   N27        1.0     0.911655     0.851319     0.866237    Uiso  ? N
   N28        1.0     0.777929     0.759679     0.584323    Uiso  ? N
   N29        1.0     0.533260     0.887416     0.371454    Uiso  ? N
   N30        1.0     0.445248     0.760534     0.128919    Uiso  ? N
   N31        1.0     0.224108     0.872048     0.846811    Uiso  ? N
   N32        1.0     0.111739     0.757221     0.615582    Uiso  ? N
   N33        1.0     0.903439     0.872854     0.370781    Uiso  ? N
   N34        1.0     0.792396     0.753300     0.118002    Uiso  ? N
   N35        1.0     0.544224     0.876834     0.850113    Uiso  ? N
   N36        1.0     0.444163     0.759377     0.612034    Uiso  ? N
