
#======================================================================
# CRYSTAL DATA
#----------------------------------------------------------------------
data_VESTA_phase_1

_chemical_name_common                  'Mg   Al   Hf   N                      '
_cell_length_a                         9.761982
_cell_length_b                         9.775676
_cell_length_c                         10.297109
_cell_angle_alpha                      89.531525
_cell_angle_beta                       89.319374
_cell_angle_gamma                      60.127518
_cell_volume                           852.030642
_space_group_name_H-M_alt              'P 1'
_space_group_IT_number                 1

loop_
_space_group_symop_operation_xyz
   'x, y, z'

loop_
   _atom_site_label
   _atom_site_occupancy
   _atom_site_fract_x
   _atom_site_fract_y
   _atom_site_fract_z
   _atom_site_adp_type
   _atom_site_U_iso_or_equiv
   _atom_site_type_symbol
   Mg1        1.0     0.119586     0.088722     0.365810    Uiso  ? Mg
   Mg2        1.0     0.558847     0.540817     0.070896    Uiso  ? Mg
   Mg3        1.0     0.227068     0.865505     0.078913    Uiso  ? Mg
   Mg4        1.0     0.768089     0.759014     0.873158    Uiso  ? Mg
   Mg5        1.0     0.547860     0.881434     0.130121    Uiso  ? Mg
   Al1        1.0     0.224887     0.210187     0.138133    Uiso  ? Al
   Al2        1.0     0.892353     0.207546     0.567003    Uiso  ? Al
   Al3        1.0     0.428661     0.094449     0.391132    Uiso  ? Al
   Al4        1.0     0.538736     0.220877     0.061341    Uiso  ? Al
   Al5        1.0     0.123752     0.090178     0.891452    Uiso  ? Al
   Al6        1.0     0.213180     0.195411     0.636545    Uiso  ? Al
   Al7        1.0     0.893285     0.224667     0.067423    Uiso  ? Al
   Al8        1.0     0.436314     0.087906     0.883747    Uiso  ? Al
   Al9        1.0     0.117887     0.415521     0.394159    Uiso  ? Al
   Al10       1.0     0.227539     0.544390     0.077999    Uiso  ? Al
   Al11       1.0     0.767128     0.431831     0.809532    Uiso  ? Al
   Al12       1.0     0.887094     0.539878     0.628498    Uiso  ? Al
   Al13       1.0     0.436095     0.433733     0.319860    Uiso  ? Al
   Al14       1.0     0.218585     0.548555     0.570828    Uiso  ? Al
   Al15       1.0     0.770337     0.424128     0.320493    Uiso  ? Al
   Al16       1.0     0.900928     0.531846     0.147367    Uiso  ? Al
   Al17       1.0     0.441475     0.447566     0.819085    Uiso  ? Al
   Al18       1.0     0.552490     0.546889     0.565497    Uiso  ? Al
   Al19       1.0     0.123919     0.751691     0.322510    Uiso  ? Al
   Al20       1.0     0.901139     0.866104     0.575528    Uiso  ? Al
   Al21       1.0     0.436176     0.755215     0.314995    Uiso  ? Al
   Al22       1.0     0.122195     0.762482     0.820662    Uiso  ? Al
   Al23       1.0     0.225776     0.867047     0.568753    Uiso  ? Al
   Al24       1.0     0.906352     0.851395     0.074249    Uiso  ? Al
   Al25       1.0     0.438105     0.761774     0.817644    Uiso  ? Al
   Al26       1.0     0.552863     0.870399     0.632673    Uiso  ? Al
   Hf1        1.0     0.789856     0.089248     0.844659    Uiso  ? Hf
   Hf2        1.0     0.773114     0.098526     0.306578    Uiso  ? Hf
   Hf3        1.0     0.550704     0.210012     0.594371    Uiso  ? Hf
   Hf4        1.0     0.109614     0.428771     0.874515    Uiso  ? Hf
   Hf5        1.0     0.775081     0.758126     0.360397    Uiso  ? Hf
   N1         1.0     0.230730     0.215814     0.321878    Uiso  ? N
   N2         1.0     0.111351     0.111867     0.080829    Uiso  ? N
   N3         1.0     0.894681     0.223620     0.878396    Uiso  ? N
   N4         1.0     0.795689     0.082389     0.635087    Uiso  ? N
   N5         1.0     0.544759     0.213093     0.386228    Uiso  ? N
   N6         1.0     0.431617     0.110302     0.065408    Uiso  ? N
   N7         1.0     0.227917     0.192547     0.820743    Uiso  ? N
   N8         1.0     0.109463     0.091592     0.584814    Uiso  ? N
   N9         1.0     0.872238     0.216429     0.381555    Uiso  ? N
   N10        1.0     0.773940     0.099890     0.095698    Uiso  ? N
   N11        1.0     0.539511     0.220620     0.855814    Uiso  ? N
   N12        1.0     0.428529     0.088362     0.580425    Uiso  ? N
   N13        1.0     0.222600     0.538231     0.385148    Uiso  ? N
   N14        1.0     0.109040     0.430224     0.078854    Uiso  ? N
   N15        1.0     0.882034     0.536838     0.814888    Uiso  ? N
   N16        1.0     0.771299     0.423469     0.620701    Uiso  ? N
   N17        1.0     0.554738     0.534561     0.380031    Uiso  ? N
   N18        1.0     0.437289     0.418815     0.136094    Uiso  ? N
   N19        1.0     0.235179     0.551995     0.884468    Uiso  ? N
   N20        1.0     0.112575     0.421334     0.589149    Uiso  ? N
   N21        1.0     0.904570     0.513975     0.341687    Uiso  ? N
   N22        1.0     0.788570     0.422136     0.136722    Uiso  ? N
   N23        1.0     0.557604     0.541982     0.866268    Uiso  ? N
   N24        1.0     0.430205     0.450129     0.631988    Uiso  ? N
   N25        1.0     0.231804     0.847402     0.385269    Uiso  ? N
   N26        1.0     0.107927     0.750273     0.141540    Uiso  ? N
   N27        1.0     0.913971     0.852781     0.890087    Uiso  ? N
   N28        1.0     0.776873     0.760710     0.581146    Uiso  ? N
   N29        1.0     0.535388     0.883494     0.348877    Uiso  ? N
   N30        1.0     0.443980     0.754689     0.138693    Uiso  ? N
   N31        1.0     0.222997     0.872804     0.868064    Uiso  ? N
   N32        1.0     0.110992     0.758225     0.634170    Uiso  ? N
   N33        1.0     0.906836     0.875515     0.387519    Uiso  ? N
   N34        1.0     0.793593     0.755287     0.133283    Uiso  ? N
   N35        1.0     0.542755     0.884249     0.820706    Uiso  ? N
   N36        1.0     0.442063     0.756885     0.626351    Uiso  ? N
