
#======================================================================
# CRYSTAL DATA
#----------------------------------------------------------------------
data_VESTA_phase_1

_chemical_name_common                  'Mg   Al   Hf   N                      '
_cell_length_a                         9.777390
_cell_length_b                         9.787970
_cell_length_c                         10.169762
_cell_angle_alpha                      90.168312
_cell_angle_beta                       89.625664
_cell_angle_gamma                      60.123615
_cell_volume                           843.871380
_space_group_name_H-M_alt              'P 1'
_space_group_IT_number                 1

loop_
_space_group_symop_operation_xyz
   'x, y, z'

loop_
   _atom_site_label
   _atom_site_occupancy
   _atom_site_fract_x
   _atom_site_fract_y
   _atom_site_fract_z
   _atom_site_adp_type
   _atom_site_U_iso_or_equiv
   _atom_site_type_symbol
   Mg1        1.0     0.118464     0.092238     0.395818    Uiso  ? Mg
   Mg2        1.0     0.557165     0.542267     0.145649    Uiso  ? Mg
   Mg3        1.0     0.228999     0.871456     0.127913    Uiso  ? Mg
   Mg4        1.0     0.763549     0.759260     0.904762    Uiso  ? Mg
   Mg5        1.0     0.541258     0.877448     0.142237    Uiso  ? Mg
   Al1        1.0     0.222377     0.206128     0.148988    Uiso  ? Al
   Al2        1.0     0.896125     0.208042     0.648066    Uiso  ? Al
   Al3        1.0     0.428673     0.095492     0.395267    Uiso  ? Al
   Al4        1.0     0.531889     0.216776     0.152688    Uiso  ? Al
   Al5        1.0     0.117604     0.089746     0.894242    Uiso  ? Al
   Al6        1.0     0.216489     0.200842     0.646287    Uiso  ? Al
   Al7        1.0     0.901020     0.219832     0.146311    Uiso  ? Al
   Al8        1.0     0.437888     0.090287     0.900437    Uiso  ? Al
   Al9        1.0     0.119437     0.418488     0.401011    Uiso  ? Al
   Al10       1.0     0.227206     0.529433     0.154326    Uiso  ? Al
   Al11       1.0     0.773156     0.433714     0.896581    Uiso  ? Al
   Al12       1.0     0.883109     0.541226     0.643711    Uiso  ? Al
   Al13       1.0     0.437877     0.442476     0.396883    Uiso  ? Al
   Al14       1.0     0.218918     0.544009     0.641977    Uiso  ? Al
   Al15       1.0     0.775604     0.427137     0.402608    Uiso  ? Al
   Al16       1.0     0.895777     0.526146     0.151014    Uiso  ? Al
   Al17       1.0     0.439896     0.441427     0.904484    Uiso  ? Al
   Al18       1.0     0.556316     0.543520     0.648440    Uiso  ? Al
   Al19       1.0     0.125730     0.751825     0.334917    Uiso  ? Al
   Al20       1.0     0.897853     0.863180     0.578764    Uiso  ? Al
   Al21       1.0     0.442558     0.755726     0.406140    Uiso  ? Al
   Al22       1.0     0.112500     0.770885     0.829864    Uiso  ? Al
   Al23       1.0     0.221694     0.875781     0.620858    Uiso  ? Al
   Al24       1.0     0.909561     0.847747     0.096714    Uiso  ? Al
   Al25       1.0     0.440724     0.765441     0.893388    Uiso  ? Al
   Al26       1.0     0.552853     0.868855     0.648630    Uiso  ? Al
   Hf1        1.0     0.773978     0.102481     0.912715    Uiso  ? Hf
   Hf2        1.0     0.781260     0.098598     0.362162    Uiso  ? Hf
   Hf3        1.0     0.548575     0.209402     0.635970    Uiso  ? Hf
   Hf4        1.0     0.109893     0.430961     0.891195    Uiso  ? Hf
   Hf5        1.0     0.773166     0.754256     0.364029    Uiso  ? Hf
   N1         1.0     0.226416     0.213692     0.334385    Uiso  ? N
   N2         1.0     0.107471     0.110113     0.082577    Uiso  ? N
   N3         1.0     0.893671     0.210806     0.838730    Uiso  ? N
   N4         1.0     0.788948     0.093289     0.588168    Uiso  ? N
   N5         1.0     0.534327     0.216653     0.348893    Uiso  ? N
   N6         1.0     0.434223     0.110813     0.085051    Uiso  ? N
   N7         1.0     0.227641     0.195790     0.834404    Uiso  ? N
   N8         1.0     0.107086     0.099503     0.599794    Uiso  ? N
   N9         1.0     0.888810     0.224043     0.331065    Uiso  ? N
   N10        1.0     0.775146     0.096048     0.125054    Uiso  ? N
   N11        1.0     0.539597     0.214170     0.841845    Uiso  ? N
   N12        1.0     0.432170     0.088864     0.584971    Uiso  ? N
   N13        1.0     0.226029     0.528161     0.347164    Uiso  ? N
   N14        1.0     0.111933     0.428615     0.096004    Uiso  ? N
   N15        1.0     0.879441     0.535473     0.829917    Uiso  ? N
   N16        1.0     0.778038     0.425319     0.591453    Uiso  ? N
   N17        1.0     0.560427     0.537354     0.353812    Uiso  ? N
   N18        1.0     0.437154     0.421507     0.089073    Uiso  ? N
   N19        1.0     0.233123     0.544491     0.834583    Uiso  ? N
   N20        1.0     0.111850     0.427150     0.596581    Uiso  ? N
   N21        1.0     0.903645     0.511467     0.343003    Uiso  ? N
   N22        1.0     0.793443     0.423194     0.080804    Uiso  ? N
   N23        1.0     0.558193     0.533468     0.836707    Uiso  ? N
   N24        1.0     0.434064     0.446568     0.586391    Uiso  ? N
   N25        1.0     0.228725     0.854590     0.383522    Uiso  ? N
   N26        1.0     0.113359     0.749057     0.147804    Uiso  ? N
   N27        1.0     0.907590     0.863141     0.905044    Uiso  ? N
   N28        1.0     0.774018     0.759940     0.588184    Uiso  ? N
   N29        1.0     0.531441     0.882245     0.349650    Uiso  ? N
   N30        1.0     0.449945     0.755963     0.070848    Uiso  ? N
   N31        1.0     0.223874     0.878101     0.836033    Uiso  ? N
   N32        1.0     0.101631     0.765851     0.639212    Uiso  ? N
   N33        1.0     0.912764     0.857603     0.388283    Uiso  ? N
   N34        1.0     0.791971     0.749881     0.134906    Uiso  ? N
   N35        1.0     0.541603     0.884423     0.833765    Uiso  ? N
   N36        1.0     0.450081     0.756996     0.596745    Uiso  ? N
