
#======================================================================
# CRYSTAL DATA
#----------------------------------------------------------------------
data_VESTA_phase_1

_chemical_name_common                  'Mg   Al   Hf   N                      '
_cell_length_a                         9.844740
_cell_length_b                         9.862757
_cell_length_c                         9.963059
_cell_angle_alpha                      89.968361
_cell_angle_beta                       89.432617
_cell_angle_gamma                      60.126358
_cell_volume                           838.784991
_space_group_name_H-M_alt              'P 1'
_space_group_IT_number                 1

loop_
_space_group_symop_operation_xyz
   'x, y, z'

loop_
   _atom_site_label
   _atom_site_occupancy
   _atom_site_fract_x
   _atom_site_fract_y
   _atom_site_fract_z
   _atom_site_adp_type
   _atom_site_U_iso_or_equiv
   _atom_site_type_symbol
   Mg1        1.0     0.116970     0.095217     0.369051    Uiso  ? Mg
   Mg2        1.0     0.566702     0.524741     0.120013    Uiso  ? Mg
   Mg3        1.0     0.211738     0.874560     0.087142    Uiso  ? Mg
   Mg4        1.0     0.772224     0.757953     0.881338    Uiso  ? Mg
   Mg5        1.0     0.551330     0.884030     0.113664    Uiso  ? Mg
   Al1        1.0     0.220925     0.211648     0.134679    Uiso  ? Al
   Al2        1.0     0.900006     0.204758     0.630157    Uiso  ? Al
   Al3        1.0     0.428456     0.094103     0.380875    Uiso  ? Al
   Al4        1.0     0.530357     0.218076     0.139915    Uiso  ? Al
   Al5        1.0     0.117812     0.090311     0.885064    Uiso  ? Al
   Al6        1.0     0.218271     0.192035     0.629535    Uiso  ? Al
   Al7        1.0     0.900072     0.222866     0.133072    Uiso  ? Al
   Al8        1.0     0.436812     0.093503     0.886243    Uiso  ? Al
   Al9        1.0     0.116142     0.419890     0.390637    Uiso  ? Al
   Al10       1.0     0.224063     0.530955     0.131069    Uiso  ? Al
   Al11       1.0     0.778396     0.429860     0.881327    Uiso  ? Al
   Al12       1.0     0.879637     0.540918     0.628207    Uiso  ? Al
   Al13       1.0     0.439577     0.446679     0.383057    Uiso  ? Al
   Al14       1.0     0.219117     0.547226     0.610188    Uiso  ? Al
   Al15       1.0     0.770169     0.431280     0.387504    Uiso  ? Al
   Al16       1.0     0.897880     0.527378     0.134006    Uiso  ? Al
   Al17       1.0     0.439604     0.437356     0.886943    Uiso  ? Al
   Al18       1.0     0.552421     0.549558     0.640228    Uiso  ? Al
   Al19       1.0     0.122954     0.751801     0.321954    Uiso  ? Al
   Al20       1.0     0.898243     0.864080     0.570215    Uiso  ? Al
   Al21       1.0     0.438424     0.759328     0.300596    Uiso  ? Al
   Al22       1.0     0.121303     0.769875     0.813505    Uiso  ? Al
   Al23       1.0     0.233350     0.865010     0.560694    Uiso  ? Al
   Al24       1.0     0.909027     0.846209     0.078944    Uiso  ? Al
   Al25       1.0     0.441597     0.762377     0.894805    Uiso  ? Al
   Al26       1.0     0.546734     0.866793     0.642811    Uiso  ? Al
   Hf1        1.0     0.776221     0.100469     0.890881    Uiso  ? Hf
   Hf2        1.0     0.780708     0.097777     0.346870    Uiso  ? Hf
   Hf3        1.0     0.547550     0.209293     0.615861    Uiso  ? Hf
   Hf4        1.0     0.112447     0.429553     0.863797    Uiso  ? Hf
   Hf5        1.0     0.769749     0.756218     0.352913    Uiso  ? Hf
   N1         1.0     0.226405     0.218037     0.323356    Uiso  ? N
   N2         1.0     0.105901     0.116170     0.077499    Uiso  ? N
   N3         1.0     0.897955     0.209417     0.825042    Uiso  ? N
   N4         1.0     0.789537     0.091642     0.579975    Uiso  ? N
   N5         1.0     0.534206     0.218330     0.341142    Uiso  ? N
   N6         1.0     0.430919     0.116911     0.072662    Uiso  ? N
   N7         1.0     0.228915     0.190768     0.820465    Uiso  ? N
   N8         1.0     0.110484     0.091232     0.580279    Uiso  ? N
   N9         1.0     0.884129     0.226283     0.320982    Uiso  ? N
   N10        1.0     0.773752     0.096775     0.108851    Uiso  ? N
   N11        1.0     0.539483     0.213578     0.826339    Uiso  ? N
   N12        1.0     0.433695     0.084396     0.574198    Uiso  ? N
   N13        1.0     0.222458     0.533532     0.351550    Uiso  ? N
   N14        1.0     0.112080     0.429798     0.076221    Uiso  ? N
   N15        1.0     0.879175     0.534788     0.816378    Uiso  ? N
   N16        1.0     0.775343     0.425474     0.579849    Uiso  ? N
   N17        1.0     0.560292     0.537110     0.330467    Uiso  ? N
   N18        1.0     0.434777     0.420648     0.076113    Uiso  ? N
   N19        1.0     0.233963     0.546345     0.819921    Uiso  ? N
   N20        1.0     0.110519     0.424630     0.589185    Uiso  ? N
   N21        1.0     0.901777     0.513858     0.330903    Uiso  ? N
   N22        1.0     0.797557     0.422969     0.067387    Uiso  ? N
   N23        1.0     0.559818     0.533092     0.837205    Uiso  ? N
   N24        1.0     0.439016     0.446715     0.575948    Uiso  ? N
   N25        1.0     0.231697     0.852856     0.365052    Uiso  ? N
   N26        1.0     0.109987     0.746248     0.134325    Uiso  ? N
   N27        1.0     0.910424     0.863198     0.883363    Uiso  ? N
   N28        1.0     0.772285     0.762232     0.580806    Uiso  ? N
   N29        1.0     0.532466     0.886666     0.326729    Uiso  ? N
   N30        1.0     0.446126     0.757004     0.095255    Uiso  ? N
   N31        1.0     0.221444     0.873124     0.870977    Uiso  ? N
   N32        1.0     0.107800     0.768875     0.619595    Uiso  ? N
   N33        1.0     0.910266     0.858579     0.374874    Uiso  ? N
   N34        1.0     0.794482     0.748151     0.115994    Uiso  ? N
   N35        1.0     0.542015     0.881894     0.838050    Uiso  ? N
   N36        1.0     0.444219     0.759371     0.606198    Uiso  ? N
