
#======================================================================
# CRYSTAL DATA
#----------------------------------------------------------------------
data_VESTA_phase_1

_chemical_name_common                  'Mg   Al   Hf   N                      '
_cell_length_a                         9.797111
_cell_length_b                         9.809129
_cell_length_c                         10.124935
_cell_angle_alpha                      90.086433
_cell_angle_beta                       89.578110
_cell_angle_gamma                      60.146973
_cell_volume                           843.865261
_space_group_name_H-M_alt              'P 1'
_space_group_IT_number                 1

loop_
_space_group_symop_operation_xyz
   'x, y, z'

loop_
   _atom_site_label
   _atom_site_occupancy
   _atom_site_fract_x
   _atom_site_fract_y
   _atom_site_fract_z
   _atom_site_adp_type
   _atom_site_U_iso_or_equiv
   _atom_site_type_symbol
   Mg1        1.0     0.116932     0.095590     0.379132    Uiso  ? Mg
   Mg2        1.0     0.560056     0.536922     0.135383    Uiso  ? Mg
   Mg3        1.0     0.222472     0.870303     0.090806    Uiso  ? Mg
   Mg4        1.0     0.765793     0.758837     0.891002    Uiso  ? Mg
   Mg5        1.0     0.544221     0.879501     0.131471    Uiso  ? Mg
   Al1        1.0     0.222210     0.208247     0.140797    Uiso  ? Al
   Al2        1.0     0.897942     0.206090     0.638174    Uiso  ? Al
   Al3        1.0     0.428968     0.095720     0.387129    Uiso  ? Al
   Al4        1.0     0.531533     0.217173     0.143646    Uiso  ? Al
   Al5        1.0     0.116207     0.091820     0.889131    Uiso  ? Al
   Al6        1.0     0.216894     0.197487     0.636689    Uiso  ? Al
   Al7        1.0     0.899550     0.221618     0.137887    Uiso  ? Al
   Al8        1.0     0.437185     0.090412     0.891130    Uiso  ? Al
   Al9        1.0     0.119361     0.419899     0.393264    Uiso  ? Al
   Al10       1.0     0.226605     0.529757     0.144697    Uiso  ? Al
   Al11       1.0     0.774219     0.432847     0.887234    Uiso  ? Al
   Al12       1.0     0.883133     0.540443     0.634574    Uiso  ? Al
   Al13       1.0     0.437717     0.443287     0.388090    Uiso  ? Al
   Al14       1.0     0.219559     0.544877     0.633359    Uiso  ? Al
   Al15       1.0     0.774564     0.427851     0.394263    Uiso  ? Al
   Al16       1.0     0.895721     0.526825     0.141425    Uiso  ? Al
   Al17       1.0     0.439493     0.440715     0.894682    Uiso  ? Al
   Al18       1.0     0.554462     0.546206     0.640322    Uiso  ? Al
   Al19       1.0     0.124958     0.752827     0.323437    Uiso  ? Al
   Al20       1.0     0.898298     0.863082     0.572826    Uiso  ? Al
   Al21       1.0     0.445584     0.754751     0.382993    Uiso  ? Al
   Al22       1.0     0.115673     0.772922     0.821300    Uiso  ? Al
   Al23       1.0     0.221576     0.870600     0.575022    Uiso  ? Al
   Al24       1.0     0.909162     0.847046     0.085261    Uiso  ? Al
   Al25       1.0     0.443187     0.763092     0.894538    Uiso  ? Al
   Al26       1.0     0.549795     0.867887     0.641323    Uiso  ? Al
   Hf1        1.0     0.774108     0.102083     0.901267    Uiso  ? Hf
   Hf2        1.0     0.781104     0.097636     0.352966    Uiso  ? Hf
   Hf3        1.0     0.548112     0.209591     0.625102    Uiso  ? Hf
   Hf4        1.0     0.110835     0.430267     0.880368    Uiso  ? Hf
   Hf5        1.0     0.774039     0.754463     0.356144    Uiso  ? Hf
   N1         1.0     0.227292     0.215793     0.326811    Uiso  ? N
   N2         1.0     0.105691     0.114951     0.078861    Uiso  ? N
   N3         1.0     0.894687     0.210581     0.829793    Uiso  ? N
   N4         1.0     0.789156     0.092433     0.581055    Uiso  ? N
   N5         1.0     0.534539     0.217128     0.342168    Uiso  ? N
   N6         1.0     0.433259     0.112629     0.076163    Uiso  ? N
   N7         1.0     0.227228     0.194439     0.825435    Uiso  ? N
   N8         1.0     0.108575     0.095691     0.587957    Uiso  ? N
   N9         1.0     0.886085     0.225058     0.323393    Uiso  ? N
   N10        1.0     0.774439     0.096351     0.115153    Uiso  ? N
   N11        1.0     0.539039     0.214126     0.831850    Uiso  ? N
   N12        1.0     0.432575     0.087453     0.577428    Uiso  ? N
   N13        1.0     0.225879     0.529623     0.338776    Uiso  ? N
   N14        1.0     0.111718     0.429655     0.086380    Uiso  ? N
   N15        1.0     0.880343     0.534294     0.821156    Uiso  ? N
   N16        1.0     0.777520     0.425042     0.583604    Uiso  ? N
   N17        1.0     0.561122     0.535539     0.342668    Uiso  ? N
   N18        1.0     0.436273     0.421206     0.080013    Uiso  ? N
   N19        1.0     0.232833     0.545398     0.825539    Uiso  ? N
   N20        1.0     0.112387     0.426875     0.589144    Uiso  ? N
   N21        1.0     0.903368     0.511926     0.335095    Uiso  ? N
   N22        1.0     0.794090     0.423386     0.071771    Uiso  ? N
   N23        1.0     0.557821     0.534656     0.830598    Uiso  ? N
   N24        1.0     0.434248     0.447392     0.578187    Uiso  ? N
   N25        1.0     0.227603     0.853968     0.381039    Uiso  ? N
   N26        1.0     0.111861     0.749220     0.138380    Uiso  ? N
   N27        1.0     0.907032     0.863430     0.892624    Uiso  ? N
   N28        1.0     0.773797     0.760300     0.581968    Uiso  ? N
   N29        1.0     0.533145     0.884255     0.338974    Uiso  ? N
   N30        1.0     0.452887     0.754129     0.074612    Uiso  ? N
   N31        1.0     0.221547     0.875419     0.863720    Uiso  ? N
   N32        1.0     0.104829     0.767877     0.630297    Uiso  ? N
   N33        1.0     0.913747     0.857167     0.381009    Uiso  ? N
   N34        1.0     0.793203     0.749570     0.125417    Uiso  ? N
   N35        1.0     0.540241     0.882681     0.828517    Uiso  ? N
   N36        1.0     0.449378     0.757015     0.583669    Uiso  ? N
