
#======================================================================
# CRYSTAL DATA
#----------------------------------------------------------------------
data_VESTA_phase_1

_chemical_name_common                  'Mg   Al   Hf   N                      '
_cell_length_a                         9.780048
_cell_length_b                         9.805286
_cell_length_c                         10.213728
_cell_angle_alpha                      89.873779
_cell_angle_beta                       89.656395
_cell_angle_gamma                      60.198898
_cell_volume                           849.914351
_space_group_name_H-M_alt              'P 1'
_space_group_IT_number                 1

loop_
_space_group_symop_operation_xyz
   'x, y, z'

loop_
   _atom_site_label
   _atom_site_occupancy
   _atom_site_fract_x
   _atom_site_fract_y
   _atom_site_fract_z
   _atom_site_adp_type
   _atom_site_U_iso_or_equiv
   _atom_site_type_symbol
   Mg1        1.0     0.110116     0.093553     0.376280    Uiso  ? Mg
   Mg2        1.0     0.548373     0.545853     0.074007    Uiso  ? Mg
   Mg3        1.0     0.225546     0.868422     0.076976    Uiso  ? Mg
   Mg4        1.0     0.766159     0.756576     0.893628    Uiso  ? Mg
   Mg5        1.0     0.546062     0.884150     0.130246    Uiso  ? Mg
   Al1        1.0     0.223600     0.211088     0.137339    Uiso  ? Al
   Al2        1.0     0.899345     0.207897     0.640822    Uiso  ? Al
   Al3        1.0     0.427686     0.095687     0.391515    Uiso  ? Al
   Al4        1.0     0.532549     0.224792     0.058374    Uiso  ? Al
   Al5        1.0     0.120306     0.092152     0.888611    Uiso  ? Al
   Al6        1.0     0.215380     0.194855     0.634601    Uiso  ? Al
   Al7        1.0     0.901445     0.213802     0.117922    Uiso  ? Al
   Al8        1.0     0.434775     0.087151     0.883291    Uiso  ? Al
   Al9        1.0     0.115259     0.416183     0.393018    Uiso  ? Al
   Al10       1.0     0.227699     0.545203     0.077273    Uiso  ? Al
   Al11       1.0     0.772872     0.434371     0.863941    Uiso  ? Al
   Al12       1.0     0.880967     0.537239     0.635166    Uiso  ? Al
   Al13       1.0     0.434478     0.434186     0.321401    Uiso  ? Al
   Al14       1.0     0.218764     0.548597     0.571202    Uiso  ? Al
   Al15       1.0     0.767561     0.428339     0.316640    Uiso  ? Al
   Al16       1.0     0.902657     0.532953     0.135914    Uiso  ? Al
   Al17       1.0     0.442457     0.449793     0.817742    Uiso  ? Al
   Al18       1.0     0.558720     0.544282     0.565307    Uiso  ? Al
   Al19       1.0     0.123906     0.752924     0.324278    Uiso  ? Al
   Al20       1.0     0.900451     0.865092     0.577349    Uiso  ? Al
   Al21       1.0     0.434126     0.759345     0.315331    Uiso  ? Al
   Al22       1.0     0.123202     0.763311     0.819690    Uiso  ? Al
   Al23       1.0     0.227111     0.866069     0.571158    Uiso  ? Al
   Al24       1.0     0.910378     0.848075     0.072515    Uiso  ? Al
   Al25       1.0     0.439545     0.761951     0.818361    Uiso  ? Al
   Al26       1.0     0.556568     0.868277     0.634893    Uiso  ? Al
   Hf1        1.0     0.786592     0.086166     0.855397    Uiso  ? Hf
   Hf2        1.0     0.764559     0.092529     0.302200    Uiso  ? Hf
   Hf3        1.0     0.551806     0.209867     0.598430    Uiso  ? Hf
   Hf4        1.0     0.114958     0.428918     0.868701    Uiso  ? Hf
   Hf5        1.0     0.776807     0.753977     0.361588    Uiso  ? Hf
   N1         1.0     0.228120     0.214777     0.323700    Uiso  ? N
   N2         1.0     0.110288     0.114088     0.073945    Uiso  ? N
   N3         1.0     0.902181     0.213402     0.837655    Uiso  ? N
   N4         1.0     0.794228     0.078750     0.638771    Uiso  ? N
   N5         1.0     0.541632     0.217252     0.388321    Uiso  ? N
   N6         1.0     0.429864     0.111472     0.066487    Uiso  ? N
   N7         1.0     0.228258     0.191819     0.819724    Uiso  ? N
   N8         1.0     0.106865     0.092921     0.584915    Uiso  ? N
   N9         1.0     0.880142     0.210767     0.309426    Uiso  ? N
   N10        1.0     0.770433     0.097182     0.088669    Uiso  ? N
   N11        1.0     0.534919     0.223666     0.855335    Uiso  ? N
   N12        1.0     0.430656     0.086323     0.581255    Uiso  ? N
   N13        1.0     0.220359     0.538770     0.384448    Uiso  ? N
   N14        1.0     0.113602     0.429324     0.075282    Uiso  ? N
   N15        1.0     0.881888     0.537567     0.822953    Uiso  ? N
   N16        1.0     0.774930     0.422891     0.606338    Uiso  ? N
   N17        1.0     0.554459     0.536146     0.375037    Uiso  ? N
   N18        1.0     0.436363     0.419601     0.136620    Uiso  ? N
   N19        1.0     0.237311     0.554189     0.883272    Uiso  ? N
   N20        1.0     0.110546     0.422913     0.592051    Uiso  ? N
   N21        1.0     0.904965     0.511618     0.328490    Uiso  ? N
   N22        1.0     0.788930     0.429601     0.099577    Uiso  ? N
   N23        1.0     0.555405     0.544467     0.869268    Uiso  ? N
   N24        1.0     0.431651     0.451189     0.630163    Uiso  ? N
   N25        1.0     0.231498     0.849694     0.386501    Uiso  ? N
   N26        1.0     0.109366     0.750817     0.141708    Uiso  ? N
   N27        1.0     0.916976     0.849106     0.888170    Uiso  ? N
   N28        1.0     0.778539     0.755933     0.579463    Uiso  ? N
   N29        1.0     0.538836     0.885792     0.345832    Uiso  ? N
   N30        1.0     0.440978     0.759582     0.138205    Uiso  ? N
   N31        1.0     0.224070     0.874029     0.865367    Uiso  ? N
   N32        1.0     0.111510     0.758272     0.632731    Uiso  ? N
   N33        1.0     0.906459     0.873037     0.386558    Uiso  ? N
   N34        1.0     0.792142     0.755261     0.121375    Uiso  ? N
   N35        1.0     0.546275     0.882642     0.823773    Uiso  ? N
   N36        1.0     0.444936     0.755891     0.625721    Uiso  ? N
