
#======================================================================
# CRYSTAL DATA
#----------------------------------------------------------------------
data_VESTA_phase_1

_chemical_name_common                  'Mg   Al   Hf   N                      '
_cell_length_a                         9.767278
_cell_length_b                         9.782487
_cell_length_c                         10.257137
_cell_angle_alpha                      89.742050
_cell_angle_beta                       89.524300
_cell_angle_gamma                      60.272335
_cell_volume                           851.039809
_space_group_name_H-M_alt              'P 1'
_space_group_IT_number                 1

loop_
_space_group_symop_operation_xyz
   'x, y, z'

loop_
   _atom_site_label
   _atom_site_occupancy
   _atom_site_fract_x
   _atom_site_fract_y
   _atom_site_fract_z
   _atom_site_adp_type
   _atom_site_U_iso_or_equiv
   _atom_site_type_symbol
   Mg1        1.0     0.115950     0.089962     0.371417    Uiso  ? Mg
   Mg2        1.0     0.556444     0.543113     0.070202    Uiso  ? Mg
   Mg3        1.0     0.226048     0.867691     0.077333    Uiso  ? Mg
   Mg4        1.0     0.764904     0.754479     0.896320    Uiso  ? Mg
   Mg5        1.0     0.544964     0.884696     0.131488    Uiso  ? Mg
   Al1        1.0     0.223300     0.210872     0.138256    Uiso  ? Al
   Al2        1.0     0.894762     0.203853     0.590156    Uiso  ? Al
   Al3        1.0     0.428304     0.095174     0.390979    Uiso  ? Al
   Al4        1.0     0.534879     0.224012     0.060029    Uiso  ? Al
   Al5        1.0     0.121562     0.091233     0.888155    Uiso  ? Al
   Al6        1.0     0.215179     0.195644     0.635881    Uiso  ? Al
   Al7        1.0     0.893709     0.221536     0.074836    Uiso  ? Al
   Al8        1.0     0.435023     0.088014     0.884029    Uiso  ? Al
   Al9        1.0     0.117138     0.416084     0.392812    Uiso  ? Al
   Al10       1.0     0.228173     0.545069     0.078104    Uiso  ? Al
   Al11       1.0     0.766530     0.433376     0.813235    Uiso  ? Al
   Al12       1.0     0.886685     0.541342     0.631547    Uiso  ? Al
   Al13       1.0     0.436682     0.434251     0.320675    Uiso  ? Al
   Al14       1.0     0.219344     0.548379     0.570527    Uiso  ? Al
   Al15       1.0     0.770697     0.423725     0.314762    Uiso  ? Al
   Al16       1.0     0.901822     0.532198     0.143137    Uiso  ? Al
   Al17       1.0     0.440975     0.448828     0.818674    Uiso  ? Al
   Al18       1.0     0.554522     0.546579     0.564911    Uiso  ? Al
   Al19       1.0     0.124797     0.752102     0.323741    Uiso  ? Al
   Al20       1.0     0.901630     0.864393     0.575775    Uiso  ? Al
   Al21       1.0     0.436115     0.756595     0.314662    Uiso  ? Al
   Al22       1.0     0.121896     0.762677     0.820435    Uiso  ? Al
   Al23       1.0     0.228285     0.865053     0.570481    Uiso  ? Al
   Al24       1.0     0.909545     0.849714     0.073574    Uiso  ? Al
   Al25       1.0     0.438533     0.762365     0.818571    Uiso  ? Al
   Al26       1.0     0.556348     0.869109     0.635983    Uiso  ? Al
   Hf1        1.0     0.787133     0.086516     0.850234    Uiso  ? Hf
   Hf2        1.0     0.769858     0.095894     0.305314    Uiso  ? Hf
   Hf3        1.0     0.550863     0.210175     0.595714    Uiso  ? Hf
   Hf4        1.0     0.110577     0.429248     0.873130    Uiso  ? Hf
   Hf5        1.0     0.775617     0.756440     0.360848    Uiso  ? Hf
   N1         1.0     0.229310     0.215012     0.323158    Uiso  ? N
   N2         1.0     0.110414     0.113495     0.076704    Uiso  ? N
   N3         1.0     0.895927     0.219140     0.867109    Uiso  ? N
   N4         1.0     0.795179     0.079556     0.637128    Uiso  ? N
   N5         1.0     0.542527     0.215607     0.387463    Uiso  ? N
   N6         1.0     0.429724     0.112058     0.066327    Uiso  ? N
   N7         1.0     0.227870     0.192863     0.820052    Uiso  ? N
   N8         1.0     0.110623     0.090641     0.586336    Uiso  ? N
   N9         1.0     0.874557     0.213148     0.363647    Uiso  ? N
   N10        1.0     0.772496     0.100034     0.092241    Uiso  ? N
   N11        1.0     0.536252     0.222760     0.855932    Uiso  ? N
   N12        1.0     0.430259     0.086631     0.581070    Uiso  ? N
   N13        1.0     0.222876     0.538207     0.384567    Uiso  ? N
   N14        1.0     0.110913     0.430224     0.078275    Uiso  ? N
   N15        1.0     0.880959     0.539005     0.818157    Uiso  ? N
   N16        1.0     0.772199     0.423495     0.621987    Uiso  ? N
   N17        1.0     0.556616     0.535454     0.378557    Uiso  ? N
   N18        1.0     0.437409     0.420225     0.136262    Uiso  ? N
   N19        1.0     0.235637     0.552901     0.884188    Uiso  ? N
   N20        1.0     0.112058     0.422085     0.589856    Uiso  ? N
   N21        1.0     0.905346     0.513976     0.336617    Uiso  ? N
   N22        1.0     0.787434     0.425948     0.128630    Uiso  ? N
   N23        1.0     0.556728     0.543317     0.866353    Uiso  ? N
   N24        1.0     0.431080     0.450673     0.631072    Uiso  ? N
   N25        1.0     0.233365     0.847569     0.386669    Uiso  ? N
   N26        1.0     0.109073     0.750685     0.142114    Uiso  ? N
   N27        1.0     0.915366     0.849779     0.889760    Uiso  ? N
   N28        1.0     0.777209     0.758733     0.578532    Uiso  ? N
   N29        1.0     0.537002     0.885472     0.345600    Uiso  ? N
   N30        1.0     0.442211     0.756810     0.137685    Uiso  ? N
   N31        1.0     0.223280     0.873410     0.866075    Uiso  ? N
   N32        1.0     0.111617     0.757749     0.633503    Uiso  ? N
   N33        1.0     0.907758     0.872895     0.386776    Uiso  ? N
   N34        1.0     0.791887     0.754888     0.123247    Uiso  ? N
   N35        1.0     0.545661     0.883180     0.823920    Uiso  ? N
   N36        1.0     0.444750     0.756367     0.626718    Uiso  ? N
