
#======================================================================
# CRYSTAL DATA
#----------------------------------------------------------------------
data_VESTA_phase_1

_chemical_name_common                  'Mg   Al   Hf   N                      '
_cell_length_a                         9.796118
_cell_length_b                         9.795846
_cell_length_c                         10.124619
_cell_angle_alpha                      90.183884
_cell_angle_beta                       89.941963
_cell_angle_gamma                      60.052555
_cell_volume                           841.842375
_space_group_name_H-M_alt              'P 1'
_space_group_IT_number                 1

loop_
_space_group_symop_operation_xyz
   'x, y, z'

loop_
   _atom_site_label
   _atom_site_occupancy
   _atom_site_fract_x
   _atom_site_fract_y
   _atom_site_fract_z
   _atom_site_adp_type
   _atom_site_U_iso_or_equiv
   _atom_site_type_symbol
   Mg1        1.0     0.120032     0.090031     0.389330    Uiso  ? Mg
   Mg2        1.0     0.556992     0.541869     0.140443    Uiso  ? Mg
   Mg3        1.0     0.231630     0.871212     0.136254    Uiso  ? Mg
   Mg4        1.0     0.765837     0.760111     0.902543    Uiso  ? Mg
   Mg5        1.0     0.542084     0.875753     0.137038    Uiso  ? Mg
   Al1        1.0     0.222214     0.205576     0.143907    Uiso  ? Al
   Al2        1.0     0.897843     0.208756     0.643958    Uiso  ? Al
   Al3        1.0     0.429114     0.095758     0.389259    Uiso  ? Al
   Al4        1.0     0.534438     0.214418     0.146877    Uiso  ? Al
   Al5        1.0     0.118061     0.089509     0.891899    Uiso  ? Al
   Al6        1.0     0.216432     0.201086     0.640407    Uiso  ? Al
   Al7        1.0     0.901245     0.217696     0.141293    Uiso  ? Al
   Al8        1.0     0.438053     0.089384     0.895898    Uiso  ? Al
   Al9        1.0     0.119089     0.419067     0.394670    Uiso  ? Al
   Al10       1.0     0.226723     0.528862     0.145709    Uiso  ? Al
   Al11       1.0     0.773415     0.433032     0.892088    Uiso  ? Al
   Al12       1.0     0.884033     0.539670     0.639727    Uiso  ? Al
   Al13       1.0     0.438406     0.442203     0.389688    Uiso  ? Al
   Al14       1.0     0.220104     0.544389     0.633959    Uiso  ? Al
   Al15       1.0     0.775919     0.427427     0.395949    Uiso  ? Al
   Al16       1.0     0.894465     0.527213     0.144947    Uiso  ? Al
   Al17       1.0     0.441123     0.440590     0.899397    Uiso  ? Al
   Al18       1.0     0.555882     0.544132     0.641798    Uiso  ? Al
   Al19       1.0     0.127167     0.751065     0.326608    Uiso  ? Al
   Al20       1.0     0.891407     0.866984     0.621916    Uiso  ? Al
   Al21       1.0     0.439916     0.757862     0.397992    Uiso  ? Al
   Al22       1.0     0.116251     0.767306     0.825672    Uiso  ? Al
   Al23       1.0     0.224004     0.878409     0.632473    Uiso  ? Al
   Al24       1.0     0.900125     0.856187     0.129278    Uiso  ? Al
   Al25       1.0     0.441854     0.764577     0.890171    Uiso  ? Al
   Al26       1.0     0.550876     0.869844     0.644139    Uiso  ? Al
   Hf1        1.0     0.776256     0.098419     0.903082    Uiso  ? Hf
   Hf2        1.0     0.781699     0.099591     0.367777    Uiso  ? Hf
   Hf3        1.0     0.546586     0.210629     0.631247    Uiso  ? Hf
   Hf4        1.0     0.110528     0.430368     0.885190    Uiso  ? Hf
   Hf5        1.0     0.773278     0.755135     0.366865    Uiso  ? Hf
   N1         1.0     0.226165     0.214055     0.330111    Uiso  ? N
   N2         1.0     0.107898     0.108769     0.078802    Uiso  ? N
   N3         1.0     0.894816     0.210725     0.833981    Uiso  ? N
   N4         1.0     0.789285     0.092187     0.586602    Uiso  ? N
   N5         1.0     0.535583     0.215906     0.344222    Uiso  ? N
   N6         1.0     0.434093     0.110176     0.080997    Uiso  ? N
   N7         1.0     0.227603     0.194785     0.829379    Uiso  ? N
   N8         1.0     0.108326     0.097793     0.593759    Uiso  ? N
   N9         1.0     0.888643     0.223506     0.326568    Uiso  ? N
   N10        1.0     0.776701     0.092475     0.115836    Uiso  ? N
   N11        1.0     0.539097     0.214450     0.837116    Uiso  ? N
   N12        1.0     0.431643     0.089384     0.580235    Uiso  ? N
   N13        1.0     0.225669     0.528838     0.340614    Uiso  ? N
   N14        1.0     0.111352     0.427217     0.090438    Uiso  ? N
   N15        1.0     0.879495     0.534781     0.825830    Uiso  ? N
   N16        1.0     0.778270     0.425731     0.586038    Uiso  ? N
   N17        1.0     0.560208     0.537809     0.349484    Uiso  ? N
   N18        1.0     0.437908     0.420091     0.084428    Uiso  ? N
   N19        1.0     0.234345     0.543363     0.828322    Uiso  ? N
   N20        1.0     0.111878     0.427535     0.591507    Uiso  ? N
   N21        1.0     0.903012     0.513040     0.337991    Uiso  ? N
   N22        1.0     0.792936     0.422088     0.076872    Uiso  ? N
   N23        1.0     0.558129     0.533587     0.830999    Uiso  ? N
   N24        1.0     0.434815     0.446249     0.580150    Uiso  ? N
   N25        1.0     0.232118     0.856768     0.352416    Uiso  ? N
   N26        1.0     0.112989     0.746906     0.131489    Uiso  ? N
   N27        1.0     0.897476     0.868325     0.851898    Uiso  ? N
   N28        1.0     0.775082     0.761180     0.585756    Uiso  ? N
   N29        1.0     0.533015     0.882198     0.345792    Uiso  ? N
   N30        1.0     0.448051     0.756164     0.067068    Uiso  ? N
   N31        1.0     0.224686     0.878311     0.828887    Uiso  ? N
   N32        1.0     0.108632     0.764632     0.626981    Uiso  ? N
   N33        1.0     0.908731     0.860842     0.353874    Uiso  ? N
   N34        1.0     0.789667     0.749321     0.123103    Uiso  ? N
   N35        1.0     0.541374     0.883333     0.829464    Uiso  ? N
   N36        1.0     0.446952     0.759263     0.589883    Uiso  ? N
