
#======================================================================
# CRYSTAL DATA
#----------------------------------------------------------------------
data_VESTA_phase_1

_chemical_name_common                  'Mg   Al   Hf   N                      '
_cell_length_a                         9.756364
_cell_length_b                         9.770123
_cell_length_c                         10.304148
_cell_angle_alpha                      89.518272
_cell_angle_beta                       89.326904
_cell_angle_gamma                      60.147739
_cell_volume                           851.811518
_space_group_name_H-M_alt              'P 1'
_space_group_IT_number                 1

loop_
_space_group_symop_operation_xyz
   'x, y, z'

loop_
   _atom_site_label
   _atom_site_occupancy
   _atom_site_fract_x
   _atom_site_fract_y
   _atom_site_fract_z
   _atom_site_adp_type
   _atom_site_U_iso_or_equiv
   _atom_site_type_symbol
   Mg1        1.0     0.119679     0.088761     0.366298    Uiso  ? Mg
   Mg2        1.0     0.558675     0.540618     0.070742    Uiso  ? Mg
   Mg3        1.0     0.226993     0.865410     0.078432    Uiso  ? Mg
   Mg4        1.0     0.766423     0.756861     0.885807    Uiso  ? Mg
   Mg5        1.0     0.546314     0.882510     0.131001    Uiso  ? Mg
   Al1        1.0     0.224732     0.210228     0.138006    Uiso  ? Al
   Al2        1.0     0.892389     0.207963     0.567093    Uiso  ? Al
   Al3        1.0     0.428696     0.094468     0.391140    Uiso  ? Al
   Al4        1.0     0.538905     0.220771     0.061178    Uiso  ? Al
   Al5        1.0     0.123704     0.090115     0.891086    Uiso  ? Al
   Al6        1.0     0.213385     0.195343     0.636453    Uiso  ? Al
   Al7        1.0     0.893227     0.224226     0.066940    Uiso  ? Al
   Al8        1.0     0.436536     0.087659     0.883736    Uiso  ? Al
   Al9        1.0     0.117663     0.415766     0.393978    Uiso  ? Al
   Al10       1.0     0.227605     0.544226     0.077829    Uiso  ? Al
   Al11       1.0     0.767214     0.431869     0.809625    Uiso  ? Al
   Al12       1.0     0.886584     0.541176     0.629635    Uiso  ? Al
   Al13       1.0     0.436060     0.433898     0.319797    Uiso  ? Al
   Al14       1.0     0.218557     0.548617     0.570761    Uiso  ? Al
   Al15       1.0     0.770452     0.424349     0.320001    Uiso  ? Al
   Al16       1.0     0.901025     0.531366     0.146479    Uiso  ? Al
   Al17       1.0     0.441580     0.447486     0.819002    Uiso  ? Al
   Al18       1.0     0.552750     0.547113     0.565542    Uiso  ? Al
   Al19       1.0     0.124250     0.751711     0.322524    Uiso  ? Al
   Al20       1.0     0.900994     0.865909     0.575028    Uiso  ? Al
   Al21       1.0     0.436172     0.755159     0.314845    Uiso  ? Al
   Al22       1.0     0.121756     0.762473     0.820542    Uiso  ? Al
   Al23       1.0     0.226091     0.867021     0.569023    Uiso  ? Al
   Al24       1.0     0.906749     0.852343     0.074311    Uiso  ? Al
   Al25       1.0     0.438293     0.761709     0.817689    Uiso  ? Al
   Al26       1.0     0.554396     0.869842     0.634217    Uiso  ? Al
   Hf1        1.0     0.789951     0.088424     0.843797    Uiso  ? Hf
   Hf2        1.0     0.772921     0.099307     0.306755    Uiso  ? Hf
   Hf3        1.0     0.550590     0.210189     0.594129    Uiso  ? Hf
   Hf4        1.0     0.109552     0.428846     0.874243    Uiso  ? Hf
   Hf5        1.0     0.775040     0.758247     0.360125    Uiso  ? Hf
   N1         1.0     0.230664     0.215923     0.321813    Uiso  ? N
   N2         1.0     0.111369     0.111751     0.080365    Uiso  ? N
   N3         1.0     0.894539     0.223273     0.878064    Uiso  ? N
   N4         1.0     0.795660     0.082224     0.634471    Uiso  ? N
   N5         1.0     0.544542     0.213445     0.386322    Uiso  ? N
   N6         1.0     0.431335     0.110567     0.065218    Uiso  ? N
   N7         1.0     0.228102     0.192447     0.820443    Uiso  ? N
   N8         1.0     0.109522     0.091574     0.584862    Uiso  ? N
   N9         1.0     0.872394     0.216956     0.381803    Uiso  ? N
   N10        1.0     0.774070     0.099667     0.096160    Uiso  ? N
   N11        1.0     0.539623     0.220529     0.855832    Uiso  ? N
   N12        1.0     0.429033     0.087709     0.580390    Uiso  ? N
   N13        1.0     0.222678     0.538301     0.385230    Uiso  ? N
   N14        1.0     0.109231     0.429928     0.078416    Uiso  ? N
   N15        1.0     0.881224     0.538206     0.815633    Uiso  ? N
   N16        1.0     0.771487     0.423813     0.620974    Uiso  ? N
   N17        1.0     0.554992     0.534720     0.380076    Uiso  ? N
   N18        1.0     0.437352     0.418633     0.136174    Uiso  ? N
   N19        1.0     0.235295     0.551951     0.884436    Uiso  ? N
   N20        1.0     0.112116     0.421639     0.589093    Uiso  ? N
   N21        1.0     0.904802     0.514490     0.339931    Uiso  ? N
   N22        1.0     0.788466     0.421646     0.136335    Uiso  ? N
   N23        1.0     0.557672     0.541960     0.866365    Uiso  ? N
   N24        1.0     0.430212     0.450324     0.632003    Uiso  ? N
   N25        1.0     0.232100     0.847402     0.385610    Uiso  ? N
   N26        1.0     0.108068     0.749999     0.141819    Uiso  ? N
   N27        1.0     0.913922     0.852612     0.890341    Uiso  ? N
   N28        1.0     0.776691     0.760452     0.578735    Uiso  ? N
   N29        1.0     0.535612     0.884058     0.347047    Uiso  ? N
   N30        1.0     0.443687     0.754389     0.138675    Uiso  ? N
   N31        1.0     0.223036     0.872657     0.867755    Uiso  ? N
   N32        1.0     0.110773     0.758292     0.633997    Uiso  ? N
   N33        1.0     0.906778     0.875694     0.386622    Uiso  ? N
   N34        1.0     0.792679     0.754682     0.128112    Uiso  ? N
   N35        1.0     0.544193     0.883396     0.821639    Uiso  ? N
   N36        1.0     0.442550     0.757081     0.626556    Uiso  ? N
