
#======================================================================
# CRYSTAL DATA
#----------------------------------------------------------------------
data_VESTA_phase_1

_chemical_name_common                  'Mg   Al   Hf   N                      '
_cell_length_a                         9.800224
_cell_length_b                         9.823672
_cell_length_c                         10.161067
_cell_angle_alpha                      89.790466
_cell_angle_beta                       89.533630
_cell_angle_gamma                      59.990971
_cell_volume                           847.082814
_space_group_name_H-M_alt              'P 1'
_space_group_IT_number                 1

loop_
_space_group_symop_operation_xyz
   'x, y, z'

loop_
   _atom_site_label
   _atom_site_occupancy
   _atom_site_fract_x
   _atom_site_fract_y
   _atom_site_fract_z
   _atom_site_adp_type
   _atom_site_U_iso_or_equiv
   _atom_site_type_symbol
   Mg1        1.0     0.118524     0.088734     0.358987    Uiso  ? Mg
   Mg2        1.0     0.558376     0.539309     0.074267    Uiso  ? Mg
   Mg3        1.0     0.227191     0.864447     0.082379    Uiso  ? Mg
   Mg4        1.0     0.777038     0.764141     0.820980    Uiso  ? Mg
   Mg5        1.0     0.551619     0.877581     0.122111    Uiso  ? Mg
   Al1        1.0     0.222152     0.215584     0.136435    Uiso  ? Al
   Al2        1.0     0.892137     0.206461     0.567754    Uiso  ? Al
   Al3        1.0     0.429025     0.094605     0.389448    Uiso  ? Al
   Al4        1.0     0.536025     0.221809     0.062784    Uiso  ? Al
   Al5        1.0     0.123061     0.090419     0.895412    Uiso  ? Al
   Al6        1.0     0.215240     0.190226     0.638037    Uiso  ? Al
   Al7        1.0     0.894317     0.224642     0.072880    Uiso  ? Al
   Al8        1.0     0.436122     0.086513     0.884804    Uiso  ? Al
   Al9        1.0     0.119714     0.414738     0.397366    Uiso  ? Al
   Al10       1.0     0.225647     0.542916     0.074851    Uiso  ? Al
   Al11       1.0     0.768705     0.433838     0.815255    Uiso  ? Al
   Al12       1.0     0.884903     0.532403     0.588137    Uiso  ? Al
   Al13       1.0     0.435867     0.433558     0.321598    Uiso  ? Al
   Al14       1.0     0.219891     0.550839     0.575038    Uiso  ? Al
   Al15       1.0     0.774456     0.426867     0.323723    Uiso  ? Al
   Al16       1.0     0.888500     0.538955     0.078835    Uiso  ? Al
   Al17       1.0     0.442199     0.449392     0.820607    Uiso  ? Al
   Al18       1.0     0.552256     0.546423     0.567643    Uiso  ? Al
   Al19       1.0     0.122916     0.750723     0.322777    Uiso  ? Al
   Al20       1.0     0.900989     0.867325     0.577086    Uiso  ? Al
   Al21       1.0     0.437899     0.754767     0.315894    Uiso  ? Al
   Al22       1.0     0.123629     0.765581     0.821844    Uiso  ? Al
   Al23       1.0     0.224978     0.868072     0.568041    Uiso  ? Al
   Al24       1.0     0.906127     0.846721     0.072127    Uiso  ? Al
   Al25       1.0     0.439532     0.761997     0.821531    Uiso  ? Al
   Al26       1.0     0.547472     0.872263     0.629059    Uiso  ? Al
   Hf1        1.0     0.788460     0.091971     0.848813    Uiso  ? Hf
   Hf2        1.0     0.771296     0.097331     0.308729    Uiso  ? Hf
   Hf3        1.0     0.548993     0.209863     0.598589    Uiso  ? Hf
   Hf4        1.0     0.114907     0.429433     0.856034    Uiso  ? Hf
   Hf5        1.0     0.779025     0.752685     0.352783    Uiso  ? Hf
   N1         1.0     0.228988     0.218029     0.323478    Uiso  ? N
   N2         1.0     0.111309     0.110653     0.088026    Uiso  ? N
   N3         1.0     0.894986     0.222619     0.881583    Uiso  ? N
   N4         1.0     0.794664     0.084272     0.634943    Uiso  ? N
   N5         1.0     0.542941     0.213736     0.386683    Uiso  ? N
   N6         1.0     0.432471     0.109483     0.068751    Uiso  ? N
   N7         1.0     0.228101     0.188429     0.823590    Uiso  ? N
   N8         1.0     0.108699     0.091938     0.583440    Uiso  ? N
   N9         1.0     0.871008     0.216441     0.379190    Uiso  ? N
   N10        1.0     0.771736     0.100646     0.095973    Uiso  ? N
   N11        1.0     0.536948     0.221570     0.854269    Uiso  ? N
   N12        1.0     0.427258     0.089012     0.580605    Uiso  ? N
   N13        1.0     0.220722     0.537848     0.387574    Uiso  ? N
   N14        1.0     0.112721     0.428524     0.070551    Uiso  ? N
   N15        1.0     0.876571     0.536601     0.860928    Uiso  ? N
   N16        1.0     0.772447     0.422696     0.626814    Uiso  ? N
   N17        1.0     0.555680     0.533720     0.379847    Uiso  ? N
   N18        1.0     0.435622     0.420151     0.135795    Uiso  ? N
   N19        1.0     0.235882     0.555724     0.881659    Uiso  ? N
   N20        1.0     0.116874     0.422072     0.606902    Uiso  ? N
   N21        1.0     0.896937     0.512204     0.395318    Uiso  ? N
   N22        1.0     0.793046     0.426053     0.139113    Uiso  ? N
   N23        1.0     0.557839     0.541803     0.867988    Uiso  ? N
   N24        1.0     0.432126     0.450176     0.631426    Uiso  ? N
   N25        1.0     0.231342     0.847224     0.382374    Uiso  ? N
   N26        1.0     0.107451     0.748974     0.139824    Uiso  ? N
   N27        1.0     0.913554     0.854376     0.886753    Uiso  ? N
   N28        1.0     0.778521     0.762244     0.598400    Uiso  ? N
   N29        1.0     0.538683     0.881094     0.353854    Uiso  ? N
   N30        1.0     0.446184     0.754711     0.137513    Uiso  ? N
   N31        1.0     0.223785     0.874372     0.870079    Uiso  ? N
   N32        1.0     0.111383     0.761089     0.633611    Uiso  ? N
   N33        1.0     0.905457     0.872615     0.388143    Uiso  ? N
   N34        1.0     0.798457     0.749016     0.139597    Uiso  ? N
   N35        1.0     0.541915     0.884403     0.821617    Uiso  ? N
   N36        1.0     0.440879     0.756723     0.626256    Uiso  ? N
