
#======================================================================
# CRYSTAL DATA
#----------------------------------------------------------------------
data_VESTA_phase_1

_chemical_name_common                  'Mg   Al   Hf   N                      '
_cell_length_a                         9.844822
_cell_length_b                         9.867667
_cell_length_c                         10.047248
_cell_angle_alpha                      89.871933
_cell_angle_beta                       89.641258
_cell_angle_gamma                      59.961319
_cell_volume                           844.932376
_space_group_name_H-M_alt              'P 1'
_space_group_IT_number                 1

loop_
_space_group_symop_operation_xyz
   'x, y, z'

loop_
   _atom_site_label
   _atom_site_occupancy
   _atom_site_fract_x
   _atom_site_fract_y
   _atom_site_fract_z
   _atom_site_adp_type
   _atom_site_U_iso_or_equiv
   _atom_site_type_symbol
   Mg1        1.0     0.120930     0.090604     0.371611    Uiso  ? Mg
   Mg2        1.0     0.560303     0.532411     0.099386    Uiso  ? Mg
   Mg3        1.0     0.220754     0.869051     0.076830    Uiso  ? Mg
   Mg4        1.0     0.769581     0.758805     0.887276    Uiso  ? Mg
   Mg5        1.0     0.545064     0.880119     0.117299    Uiso  ? Mg
   Al1        1.0     0.220340     0.212707     0.133028    Uiso  ? Al
   Al2        1.0     0.900559     0.204232     0.632728    Uiso  ? Al
   Al3        1.0     0.428101     0.091947     0.383664    Uiso  ? Al
   Al4        1.0     0.534165     0.209337     0.142307    Uiso  ? Al
   Al5        1.0     0.115340     0.093319     0.885281    Uiso  ? Al
   Al6        1.0     0.217338     0.193203     0.632091    Uiso  ? Al
   Al7        1.0     0.901026     0.222753     0.133613    Uiso  ? Al
   Al8        1.0     0.438197     0.093619     0.884865    Uiso  ? Al
   Al9        1.0     0.116127     0.417993     0.389299    Uiso  ? Al
   Al10       1.0     0.227126     0.541594     0.073413    Uiso  ? Al
   Al11       1.0     0.778150     0.431798     0.881118    Uiso  ? Al
   Al12       1.0     0.881833     0.540895     0.629963    Uiso  ? Al
   Al13       1.0     0.433885     0.442244     0.323937    Uiso  ? Al
   Al14       1.0     0.217353     0.550755     0.570717    Uiso  ? Al
   Al15       1.0     0.774868     0.427389     0.387819    Uiso  ? Al
   Al16       1.0     0.899034     0.526957     0.133610    Uiso  ? Al
   Al17       1.0     0.440496     0.443402     0.819054    Uiso  ? Al
   Al18       1.0     0.556892     0.546990     0.608853    Uiso  ? Al
   Al19       1.0     0.127973     0.747128     0.319821    Uiso  ? Al
   Al20       1.0     0.900566     0.861763     0.570741    Uiso  ? Al
   Al21       1.0     0.436581     0.756125     0.308557    Uiso  ? Al
   Al22       1.0     0.117072     0.769361     0.820406    Uiso  ? Al
   Al23       1.0     0.227564     0.866443     0.569387    Uiso  ? Al
   Al24       1.0     0.906878     0.849284     0.082345    Uiso  ? Al
   Al25       1.0     0.436678     0.766653     0.828965    Uiso  ? Al
   Al26       1.0     0.553408     0.871105     0.636660    Uiso  ? Al
   Hf1        1.0     0.772458     0.103899     0.893158    Uiso  ? Hf
   Hf2        1.0     0.785403     0.095276     0.349847    Uiso  ? Hf
   Hf3        1.0     0.548007     0.208842     0.605922    Uiso  ? Hf
   Hf4        1.0     0.112144     0.429186     0.861323    Uiso  ? Hf
   Hf5        1.0     0.772233     0.755509     0.350712    Uiso  ? Hf
   N1         1.0     0.227448     0.216955     0.321399    Uiso  ? N
   N2         1.0     0.106117     0.114783     0.075402    Uiso  ? N
   N3         1.0     0.895457     0.211104     0.825528    Uiso  ? N
   N4         1.0     0.792871     0.090205     0.579321    Uiso  ? N
   N5         1.0     0.538724     0.210279     0.353812    Uiso  ? N
   N6         1.0     0.432203     0.114346     0.070890    Uiso  ? N
   N7         1.0     0.228709     0.190698     0.821224    Uiso  ? N
   N8         1.0     0.110297     0.091976     0.583038    Uiso  ? N
   N9         1.0     0.887848     0.224158     0.319641    Uiso  ? N
   N10        1.0     0.771253     0.096960     0.110943    Uiso  ? N
   N11        1.0     0.539246     0.212736     0.822439    Uiso  ? N
   N12        1.0     0.430665     0.086121     0.574821    Uiso  ? N
   N13        1.0     0.221658     0.537180     0.382830    Uiso  ? N
   N14        1.0     0.110815     0.429163     0.072232    Uiso  ? N
   N15        1.0     0.878503     0.537117     0.816851    Uiso  ? N
   N16        1.0     0.782446     0.422844     0.578831    Uiso  ? N
   N17        1.0     0.556239     0.536613     0.364421    Uiso  ? N
   N18        1.0     0.432377     0.422824     0.134497    Uiso  ? N
   N19        1.0     0.233162     0.554742     0.877673    Uiso  ? N
   N20        1.0     0.111315     0.424136     0.593050    Uiso  ? N
   N21        1.0     0.902986     0.512489     0.329447    Uiso  ? N
   N22        1.0     0.796432     0.423690     0.067719    Uiso  ? N
   N23        1.0     0.563132     0.536254     0.837732    Uiso  ? N
   N24        1.0     0.429312     0.450492     0.624286    Uiso  ? N
   N25        1.0     0.232043     0.847909     0.380242    Uiso  ? N
   N26        1.0     0.111044     0.746465     0.135640    Uiso  ? N
   N27        1.0     0.906847     0.866137     0.888194    Uiso  ? N
   N28        1.0     0.774578     0.760599     0.578400    Uiso  ? N
   N29        1.0     0.533925     0.883407     0.338102    Uiso  ? N
   N30        1.0     0.441197     0.756576     0.123688    Uiso  ? N
   N31        1.0     0.219645     0.876066     0.864974    Uiso  ? N
   N32        1.0     0.108267     0.761522     0.630748    Uiso  ? N
   N33        1.0     0.914721     0.855919     0.376495    Uiso  ? N
   N34        1.0     0.792171     0.750072     0.117918    Uiso  ? N
   N35        1.0     0.543996     0.885264     0.830536    Uiso  ? N
   N36        1.0     0.440287     0.763878     0.629726    Uiso  ? N
