
#======================================================================
# CRYSTAL DATA
#----------------------------------------------------------------------
data_VESTA_phase_1

_chemical_name_common                  'Mg   Al   Hf   N                      '
_cell_length_a                         9.775223
_cell_length_b                         9.794515
_cell_length_c                         10.217701
_cell_angle_alpha                      89.887367
_cell_angle_beta                       89.715866
_cell_angle_gamma                      60.198715
_cell_volume                           848.895320
_space_group_name_H-M_alt              'P 1'
_space_group_IT_number                 1

loop_
_space_group_symop_operation_xyz
   'x, y, z'

loop_
   _atom_site_label
   _atom_site_occupancy
   _atom_site_fract_x
   _atom_site_fract_y
   _atom_site_fract_z
   _atom_site_adp_type
   _atom_site_U_iso_or_equiv
   _atom_site_type_symbol
   Mg1        1.0     0.110975     0.092760     0.375295    Uiso  ? Mg
   Mg2        1.0     0.549486     0.544740     0.077286    Uiso  ? Mg
   Mg3        1.0     0.225165     0.868676     0.076644    Uiso  ? Mg
   Mg4        1.0     0.766984     0.755362     0.891838    Uiso  ? Mg
   Mg5        1.0     0.546116     0.884044     0.129597    Uiso  ? Mg
   Al1        1.0     0.223365     0.211299     0.136729    Uiso  ? Al
   Al2        1.0     0.899643     0.208353     0.640616    Uiso  ? Al
   Al3        1.0     0.427794     0.095597     0.391291    Uiso  ? Al
   Al4        1.0     0.532626     0.224728     0.058047    Uiso  ? Al
   Al5        1.0     0.119093     0.092999     0.888248    Uiso  ? Al
   Al6        1.0     0.215369     0.194881     0.634484    Uiso  ? Al
   Al7        1.0     0.899973     0.219403     0.120518    Uiso  ? Al
   Al8        1.0     0.434783     0.087209     0.883198    Uiso  ? Al
   Al9        1.0     0.115635     0.416243     0.392178    Uiso  ? Al
   Al10       1.0     0.227170     0.545085     0.077002    Uiso  ? Al
   Al11       1.0     0.777423     0.433706     0.888183    Uiso  ? Al
   Al12       1.0     0.880834     0.536861     0.633682    Uiso  ? Al
   Al13       1.0     0.434219     0.434500     0.321130    Uiso  ? Al
   Al14       1.0     0.218204     0.548655     0.571095    Uiso  ? Al
   Al15       1.0     0.775535     0.421196     0.370221    Uiso  ? Al
   Al16       1.0     0.899698     0.530208     0.136598    Uiso  ? Al
   Al17       1.0     0.443220     0.449778     0.818407    Uiso  ? Al
   Al18       1.0     0.552426     0.547293     0.566225    Uiso  ? Al
   Al19       1.0     0.123714     0.753176     0.323936    Uiso  ? Al
   Al20       1.0     0.900091     0.865198     0.576815    Uiso  ? Al
   Al21       1.0     0.434253     0.759048     0.315026    Uiso  ? Al
   Al22       1.0     0.123265     0.763321     0.819646    Uiso  ? Al
   Al23       1.0     0.226472     0.866638     0.571102    Uiso  ? Al
   Al24       1.0     0.910159     0.847720     0.072389    Uiso  ? Al
   Al25       1.0     0.440468     0.761083     0.819080    Uiso  ? Al
   Al26       1.0     0.556790     0.868250     0.634929    Uiso  ? Al
   Hf1        1.0     0.786954     0.087142     0.855157    Uiso  ? Hf
   Hf2        1.0     0.764221     0.093839     0.301295    Uiso  ? Hf
   Hf3        1.0     0.551510     0.209473     0.598693    Uiso  ? Hf
   Hf4        1.0     0.113360     0.429508     0.868393    Uiso  ? Hf
   Hf5        1.0     0.776928     0.754172     0.359340    Uiso  ? Hf
   N1         1.0     0.228276     0.214677     0.323235    Uiso  ? N
   N2         1.0     0.109149     0.114352     0.074156    Uiso  ? N
   N3         1.0     0.901092     0.215995     0.832840    Uiso  ? N
   N4         1.0     0.793936     0.079229     0.638180    Uiso  ? N
   N5         1.0     0.541919     0.217267     0.388420    Uiso  ? N
   N6         1.0     0.429734     0.111525     0.066255    Uiso  ? N
   N7         1.0     0.228128     0.192195     0.819571    Uiso  ? N
   N8         1.0     0.106696     0.093294     0.584080    Uiso  ? N
   N9         1.0     0.878474     0.214906     0.308769    Uiso  ? N
   N10        1.0     0.770268     0.097625     0.088680    Uiso  ? N
   N11        1.0     0.535253     0.223273     0.854983    Uiso  ? N
   N12        1.0     0.430495     0.086093     0.580984    Uiso  ? N
   N13        1.0     0.219981     0.538996     0.384357    Uiso  ? N
   N14        1.0     0.112447     0.429999     0.075111    Uiso  ? N
   N15        1.0     0.879989     0.535374     0.818416    Uiso  ? N
   N16        1.0     0.780350     0.419648     0.575778    Uiso  ? N
   N17        1.0     0.550943     0.537805     0.376074    Uiso  ? N
   N18        1.0     0.436078     0.419464     0.136573    Uiso  ? N
   N19        1.0     0.237229     0.553800     0.882876    Uiso  ? N
   N20        1.0     0.110437     0.422762     0.591214    Uiso  ? N
   N21        1.0     0.904148     0.510002     0.327368    Uiso  ? N
   N22        1.0     0.793930     0.428223     0.074949    Uiso  ? N
   N23        1.0     0.557920     0.543137     0.867149    Uiso  ? N
   N24        1.0     0.431395     0.451075     0.630590    Uiso  ? N
   N25        1.0     0.231398     0.849815     0.386470    Uiso  ? N
   N26        1.0     0.109298     0.750861     0.141536    Uiso  ? N
   N27        1.0     0.916801     0.849215     0.887954    Uiso  ? N
   N28        1.0     0.778412     0.755606     0.578357    Uiso  ? N
   N29        1.0     0.538953     0.885750     0.345538    Uiso  ? N
   N30        1.0     0.440708     0.759829     0.137950    Uiso  ? N
   N31        1.0     0.224103     0.874298     0.865154    Uiso  ? N
   N32        1.0     0.111272     0.758453     0.632567    Uiso  ? N
   N33        1.0     0.905944     0.874029     0.386012    Uiso  ? N
   N34        1.0     0.792389     0.754223     0.121894    Uiso  ? N
   N35        1.0     0.546526     0.882687     0.823621    Uiso  ? N
   N36        1.0     0.444372     0.756753     0.626243    Uiso  ? N
