
#======================================================================
# CRYSTAL DATA
#----------------------------------------------------------------------
data_VESTA_phase_1

_chemical_name_common                  'Mg   Al   Hf   N                      '
_cell_length_a                         9.787080
_cell_length_b                         9.803649
_cell_length_c                         10.174110
_cell_angle_alpha                      89.771378
_cell_angle_beta                       89.457191
_cell_angle_gamma                      59.926846
_cell_volume                           844.749007
_space_group_name_H-M_alt              'P 1'
_space_group_IT_number                 1

loop_
_space_group_symop_operation_xyz
   'x, y, z'

loop_
   _atom_site_label
   _atom_site_occupancy
   _atom_site_fract_x
   _atom_site_fract_y
   _atom_site_fract_z
   _atom_site_adp_type
   _atom_site_U_iso_or_equiv
   _atom_site_type_symbol
   Mg1        1.0     0.116803     0.087254     0.326978    Uiso  ? Mg
   Mg2        1.0     0.556997     0.538222     0.075333    Uiso  ? Mg
   Mg3        1.0     0.222567     0.874130     0.072678    Uiso  ? Mg
   Mg4        1.0     0.778183     0.758070     0.822290    Uiso  ? Mg
   Mg5        1.0     0.549664     0.875374     0.119875    Uiso  ? Mg
   Al1        1.0     0.223754     0.207893     0.136059    Uiso  ? Al
   Al2        1.0     0.893387     0.207604     0.574310    Uiso  ? Al
   Al3        1.0     0.431947     0.094567     0.390017    Uiso  ? Al
   Al4        1.0     0.535411     0.220226     0.065112    Uiso  ? Al
   Al5        1.0     0.115387     0.082550     0.819851    Uiso  ? Al
   Al6        1.0     0.216755     0.203845     0.635793    Uiso  ? Al
   Al7        1.0     0.905235     0.220216     0.067429    Uiso  ? Al
   Al8        1.0     0.434367     0.084942     0.886105    Uiso  ? Al
   Al9        1.0     0.117388     0.426737     0.342341    Uiso  ? Al
   Al10       1.0     0.226014     0.544831     0.078921    Uiso  ? Al
   Al11       1.0     0.769871     0.435236     0.819326    Uiso  ? Al
   Al12       1.0     0.892093     0.531009     0.577520    Uiso  ? Al
   Al13       1.0     0.439472     0.433467     0.322978    Uiso  ? Al
   Al14       1.0     0.215384     0.547547     0.574080    Uiso  ? Al
   Al15       1.0     0.777821     0.424877     0.322928    Uiso  ? Al
   Al16       1.0     0.882212     0.539623     0.076545    Uiso  ? Al
   Al17       1.0     0.440673     0.447458     0.821049    Uiso  ? Al
   Al18       1.0     0.554422     0.546362     0.569392    Uiso  ? Al
   Al19       1.0     0.123141     0.756725     0.323070    Uiso  ? Al
   Al20       1.0     0.900143     0.867236     0.578021    Uiso  ? Al
   Al21       1.0     0.436041     0.757297     0.317018    Uiso  ? Al
   Al22       1.0     0.122661     0.760504     0.821237    Uiso  ? Al
   Al23       1.0     0.225225     0.867176     0.571808    Uiso  ? Al
   Al24       1.0     0.905026     0.847334     0.072341    Uiso  ? Al
   Al25       1.0     0.440592     0.759094     0.820725    Uiso  ? Al
   Al26       1.0     0.548672     0.871608     0.629839    Uiso  ? Al
   Hf1        1.0     0.785328     0.090255     0.853700    Uiso  ? Hf
   Hf2        1.0     0.776789     0.101320     0.307998    Uiso  ? Hf
   Hf3        1.0     0.551790     0.209480     0.598998    Uiso  ? Hf
   Hf4        1.0     0.112425     0.428676     0.860020    Uiso  ? Hf
   Hf5        1.0     0.777955     0.757054     0.347894    Uiso  ? Hf
   N1         1.0     0.233525     0.215263     0.326291    Uiso  ? N
   N2         1.0     0.106489     0.106707     0.121432    Uiso  ? N
   N3         1.0     0.899328     0.217757     0.877928    Uiso  ? N
   N4         1.0     0.795945     0.083853     0.638961    Uiso  ? N
   N5         1.0     0.548321     0.212426     0.386844    Uiso  ? N
   N6         1.0     0.432238     0.107416     0.068954    Uiso  ? N
   N7         1.0     0.228636     0.189418     0.825332    Uiso  ? N
   N8         1.0     0.106799     0.090769     0.624348    Uiso  ? N
   N9         1.0     0.877335     0.216688     0.389499    Uiso  ? N
   N10        1.0     0.771112     0.098464     0.093774    Uiso  ? N
   N11        1.0     0.534597     0.220720     0.854756    Uiso  ? N
   N12        1.0     0.428217     0.089948     0.580273    Uiso  ? N
   N13        1.0     0.220404     0.540037     0.384993    Uiso  ? N
   N14        1.0     0.111189     0.431051     0.091195    Uiso  ? N
   N15        1.0     0.872734     0.535694     0.886611    Uiso  ? N
   N16        1.0     0.777015     0.427171     0.630179    Uiso  ? N
   N17        1.0     0.558243     0.534138     0.381461    Uiso  ? N
   N18        1.0     0.436413     0.418847     0.138217    Uiso  ? N
   N19        1.0     0.235328     0.552596     0.886873    Uiso  ? N
   N20        1.0     0.110054     0.432754     0.630731    Uiso  ? N
   N21        1.0     0.902179     0.513596     0.388035    Uiso  ? N
   N22        1.0     0.791415     0.421591     0.138860    Uiso  ? N
   N23        1.0     0.557147     0.539548     0.868185    Uiso  ? N
   N24        1.0     0.430942     0.450460     0.631054    Uiso  ? N
   N25        1.0     0.229074     0.854349     0.388371    Uiso  ? N
   N26        1.0     0.106613     0.752992     0.140555    Uiso  ? N
   N27        1.0     0.913078     0.850982     0.886377    Uiso  ? N
   N28        1.0     0.779737     0.760126     0.599571    Uiso  ? N
   N29        1.0     0.538457     0.881100     0.353483    Uiso  ? N
   N30        1.0     0.440500     0.755272     0.138256    Uiso  ? N
   N31        1.0     0.222850     0.871556     0.865069    Uiso  ? N
   N32        1.0     0.111366     0.759309     0.632979    Uiso  ? N
   N33        1.0     0.903892     0.876505     0.388267    Uiso  ? N
   N34        1.0     0.795784     0.750458     0.138689    Uiso  ? N
   N35        1.0     0.542134     0.882372     0.822255    Uiso  ? N
   N36        1.0     0.441689     0.756637     0.626710    Uiso  ? N
