
#======================================================================
# CRYSTAL DATA
#----------------------------------------------------------------------
data_VESTA_phase_1

_chemical_name_common                  'Mg   Al   Hf   N                      '
_cell_length_a                         9.786917
_cell_length_b                         9.803804
_cell_length_c                         10.155163
_cell_angle_alpha                      89.796814
_cell_angle_beta                       89.489380
_cell_angle_gamma                      59.939285
_cell_volume                           843.285310
_space_group_name_H-M_alt              'P 1'
_space_group_IT_number                 1

loop_
_space_group_symop_operation_xyz
   'x, y, z'

loop_
   _atom_site_label
   _atom_site_occupancy
   _atom_site_fract_x
   _atom_site_fract_y
   _atom_site_fract_z
   _atom_site_adp_type
   _atom_site_U_iso_or_equiv
   _atom_site_type_symbol
   Mg1        1.0     0.116284     0.088343     0.323110    Uiso  ? Mg
   Mg2        1.0     0.557227     0.538530     0.070907    Uiso  ? Mg
   Mg3        1.0     0.222914     0.873586     0.067933    Uiso  ? Mg
   Mg4        1.0     0.779141     0.755984     0.817214    Uiso  ? Mg
   Mg5        1.0     0.550228     0.875390     0.115323    Uiso  ? Mg
   Al1        1.0     0.226816     0.202405     0.131612    Uiso  ? Al
   Al2        1.0     0.893543     0.207553     0.570127    Uiso  ? Al
   Al3        1.0     0.429789     0.096300     0.385898    Uiso  ? Al
   Al4        1.0     0.535839     0.220502     0.060100    Uiso  ? Al
   Al5        1.0     0.115475     0.081786     0.816190    Uiso  ? Al
   Al6        1.0     0.216251     0.203765     0.631056    Uiso  ? Al
   Al7        1.0     0.904480     0.220228     0.062592    Uiso  ? Al
   Al8        1.0     0.435573     0.084275     0.880261    Uiso  ? Al
   Al9        1.0     0.115224     0.430993     0.310465    Uiso  ? Al
   Al10       1.0     0.226566     0.546223     0.076253    Uiso  ? Al
   Al11       1.0     0.770869     0.434963     0.815173    Uiso  ? Al
   Al12       1.0     0.894840     0.529058     0.569012    Uiso  ? Al
   Al13       1.0     0.438946     0.433863     0.318660    Uiso  ? Al
   Al14       1.0     0.214095     0.546148     0.565762    Uiso  ? Al
   Al15       1.0     0.777775     0.425458     0.318745    Uiso  ? Al
   Al16       1.0     0.881468     0.540504     0.075024    Uiso  ? Al
   Al17       1.0     0.440352     0.447459     0.816518    Uiso  ? Al
   Al18       1.0     0.554435     0.546251     0.565068    Uiso  ? Al
   Al19       1.0     0.122764     0.757459     0.318523    Uiso  ? Al
   Al20       1.0     0.900646     0.866978     0.573441    Uiso  ? Al
   Al21       1.0     0.435759     0.757883     0.313211    Uiso  ? Al
   Al22       1.0     0.122933     0.759059     0.816645    Uiso  ? Al
   Al23       1.0     0.225212     0.866531     0.567516    Uiso  ? Al
   Al24       1.0     0.904557     0.847999     0.067785    Uiso  ? Al
   Al25       1.0     0.441056     0.758878     0.815533    Uiso  ? Al
   Al26       1.0     0.549060     0.871114     0.623410    Uiso  ? Al
   Hf1        1.0     0.785569     0.089483     0.848802    Uiso  ? Hf
   Hf2        1.0     0.776259     0.102004     0.303635    Uiso  ? Hf
   Hf3        1.0     0.551720     0.209790     0.594572    Uiso  ? Hf
   Hf4        1.0     0.112457     0.429021     0.850712    Uiso  ? Hf
   Hf5        1.0     0.777079     0.758228     0.344976    Uiso  ? Hf
   N1         1.0     0.232751     0.215732     0.321167    Uiso  ? N
   N2         1.0     0.106148     0.106057     0.115446    Uiso  ? N
   N3         1.0     0.899090     0.217392     0.872824    Uiso  ? N
   N4         1.0     0.796204     0.083606     0.634198    Uiso  ? N
   N5         1.0     0.547861     0.212707     0.382352    Uiso  ? N
   N6         1.0     0.433331     0.107027     0.063296    Uiso  ? N
   N7         1.0     0.228325     0.189147     0.822674    Uiso  ? N
   N8         1.0     0.106916     0.090446     0.620387    Uiso  ? N
   N9         1.0     0.877025     0.217173     0.385196    Uiso  ? N
   N10        1.0     0.771144     0.098564     0.088743    Uiso  ? N
   N11        1.0     0.534850     0.220637     0.849322    Uiso  ? N
   N12        1.0     0.427662     0.090866     0.576861    Uiso  ? N
   N13        1.0     0.218696     0.539726     0.376889    Uiso  ? N
   N14        1.0     0.109895     0.434359     0.104796    Uiso  ? N
   N15        1.0     0.875007     0.533875     0.885796    Uiso  ? N
   N16        1.0     0.778178     0.427594     0.625386    Uiso  ? N
   N17        1.0     0.558021     0.534384     0.377080    Uiso  ? N
   N18        1.0     0.437412     0.418876     0.133351    Uiso  ? N
   N19        1.0     0.235198     0.550948     0.884890    Uiso  ? N
   N20        1.0     0.109035     0.433835     0.631456    Uiso  ? N
   N21        1.0     0.903961     0.513807     0.379930    Uiso  ? N
   N22        1.0     0.790972     0.421199     0.134389    Uiso  ? N
   N23        1.0     0.557555     0.539313     0.863025    Uiso  ? N
   N24        1.0     0.429467     0.450950     0.626050    Uiso  ? N
   N25        1.0     0.228597     0.855043     0.383870    Uiso  ? N
   N26        1.0     0.106125     0.754789     0.135602    Uiso  ? N
   N27        1.0     0.913231     0.850023     0.881238    Uiso  ? N
   N28        1.0     0.780770     0.758846     0.593779    Uiso  ? N
   N29        1.0     0.537357     0.881781     0.351441    Uiso  ? N
   N30        1.0     0.440785     0.755741     0.133919    Uiso  ? N
   N31        1.0     0.223326     0.870191     0.859991    Uiso  ? N
   N32        1.0     0.111987     0.757478     0.627920    Uiso  ? N
   N33        1.0     0.903771     0.877473     0.383717    Uiso  ? N
   N34        1.0     0.794961     0.752075     0.135017    Uiso  ? N
   N35        1.0     0.543214     0.881499     0.816866    Uiso  ? N
   N36        1.0     0.441704     0.756509     0.621807    Uiso  ? N
