
#======================================================================
# CRYSTAL DATA
#----------------------------------------------------------------------
data_VESTA_phase_1

_chemical_name_common                  'Mg   Al   Hf   N                      '
_cell_length_a                         9.846886
_cell_length_b                         9.870035
_cell_length_c                         10.041856
_cell_angle_alpha                      89.871628
_cell_angle_beta                       89.627380
_cell_angle_gamma                      59.964745
_cell_volume                           844.886422
_space_group_name_H-M_alt              'P 1'
_space_group_IT_number                 1

loop_
_space_group_symop_operation_xyz
   'x, y, z'

loop_
   _atom_site_label
   _atom_site_occupancy
   _atom_site_fract_x
   _atom_site_fract_y
   _atom_site_fract_z
   _atom_site_adp_type
   _atom_site_U_iso_or_equiv
   _atom_site_type_symbol
   Mg1        1.0     0.120875     0.090538     0.371556    Uiso  ? Mg
   Mg2        1.0     0.561481     0.531988     0.104079    Uiso  ? Mg
   Mg3        1.0     0.220260     0.869333     0.076772    Uiso  ? Mg
   Mg4        1.0     0.769692     0.758746     0.887152    Uiso  ? Mg
   Mg5        1.0     0.545285     0.880303     0.117022    Uiso  ? Mg
   Al1        1.0     0.220252     0.212729     0.133066    Uiso  ? Al
   Al2        1.0     0.900530     0.204291     0.632508    Uiso  ? Al
   Al3        1.0     0.428126     0.092032     0.383404    Uiso  ? Al
   Al4        1.0     0.534242     0.209208     0.141762    Uiso  ? Al
   Al5        1.0     0.115243     0.093495     0.885186    Uiso  ? Al
   Al6        1.0     0.217366     0.193177     0.631877    Uiso  ? Al
   Al7        1.0     0.901055     0.222718     0.133737    Uiso  ? Al
   Al8        1.0     0.438060     0.093677     0.885054    Uiso  ? Al
   Al9        1.0     0.116037     0.418039     0.389261    Uiso  ? Al
   Al10       1.0     0.226777     0.541677     0.073317    Uiso  ? Al
   Al11       1.0     0.778351     0.431671     0.881506    Uiso  ? Al
   Al12       1.0     0.881735     0.540964     0.629647    Uiso  ? Al
   Al13       1.0     0.433900     0.442010     0.322938    Uiso  ? Al
   Al14       1.0     0.217826     0.550627     0.570607    Uiso  ? Al
   Al15       1.0     0.773739     0.427917     0.387617    Uiso  ? Al
   Al16       1.0     0.899094     0.526935     0.133713    Uiso  ? Al
   Al17       1.0     0.440319     0.442758     0.820618    Uiso  ? Al
   Al18       1.0     0.557956     0.546452     0.617079    Uiso  ? Al
   Al19       1.0     0.127960     0.747150     0.319912    Uiso  ? Al
   Al20       1.0     0.900563     0.861768     0.570790    Uiso  ? Al
   Al21       1.0     0.436519     0.756321     0.307506    Uiso  ? Al
   Al22       1.0     0.117107     0.769312     0.820163    Uiso  ? Al
   Al23       1.0     0.228005     0.866147     0.569318    Uiso  ? Al
   Al24       1.0     0.906919     0.849225     0.082340    Uiso  ? Al
   Al25       1.0     0.436335     0.767540     0.830591    Uiso  ? Al
   Al26       1.0     0.553267     0.871132     0.636712    Uiso  ? Al
   Hf1        1.0     0.772929     0.103527     0.892941    Uiso  ? Hf
   Hf2        1.0     0.785184     0.095425     0.349846    Uiso  ? Hf
   Hf3        1.0     0.547874     0.209031     0.606324    Uiso  ? Hf
   Hf4        1.0     0.111932     0.429257     0.861076    Uiso  ? Hf
   Hf5        1.0     0.772113     0.755566     0.350750    Uiso  ? Hf
   N1         1.0     0.227311     0.216970     0.321516    Uiso  ? N
   N2         1.0     0.106008     0.114891     0.075412    Uiso  ? N
   N3         1.0     0.895469     0.211267     0.825452    Uiso  ? N
   N4         1.0     0.792678     0.090255     0.579637    Uiso  ? N
   N5         1.0     0.538576     0.210324     0.353143    Uiso  ? N
   N6         1.0     0.432013     0.114302     0.071005    Uiso  ? N
   N7         1.0     0.228732     0.190759     0.821150    Uiso  ? N
   N8         1.0     0.110336     0.091883     0.583021    Uiso  ? N
   N9         1.0     0.887796     0.224131     0.319894    Uiso  ? N
   N10        1.0     0.771465     0.096801     0.110739    Uiso  ? N
   N11        1.0     0.539390     0.212609     0.823054    Uiso  ? N
   N12        1.0     0.430749     0.086193     0.574766    Uiso  ? N
   N13        1.0     0.221885     0.537000     0.382565    Uiso  ? N
   N14        1.0     0.110679     0.429131     0.072164    Uiso  ? N
   N15        1.0     0.878305     0.537104     0.816697    Uiso  ? N
   N16        1.0     0.781590     0.423248     0.578757    Uiso  ? N
   N17        1.0     0.557091     0.535950     0.357871    Uiso  ? N
   N18        1.0     0.432244     0.422486     0.132971    Uiso  ? N
   N19        1.0     0.232772     0.554928     0.877645    Uiso  ? N
   N20        1.0     0.111289     0.424202     0.593049    Uiso  ? N
   N21        1.0     0.902839     0.512564     0.329672    Uiso  ? N
   N22        1.0     0.796561     0.423621     0.067702    Uiso  ? N
   N23        1.0     0.563628     0.535976     0.835522    Uiso  ? N
   N24        1.0     0.429462     0.450440     0.624883    Uiso  ? N
   N25        1.0     0.232336     0.847783     0.379955    Uiso  ? N
   N26        1.0     0.110995     0.746468     0.135649    Uiso  ? N
   N27        1.0     0.906999     0.865860     0.887994    Uiso  ? N
   N28        1.0     0.774492     0.760717     0.578475    Uiso  ? N
   N29        1.0     0.533809     0.883424     0.337812    Uiso  ? N
   N30        1.0     0.441054     0.757239     0.121797    Uiso  ? N
   N31        1.0     0.219176     0.876356     0.864882    Uiso  ? N
   N32        1.0     0.108396     0.761438     0.630460    Uiso  ? N
   N33        1.0     0.914618     0.856056     0.376475    Uiso  ? N
   N34        1.0     0.792277     0.749992     0.117875    Uiso  ? N
   N35        1.0     0.544095     0.885439     0.830732    Uiso  ? N
   N36        1.0     0.440339     0.763885     0.630159    Uiso  ? N
