
#======================================================================
# CRYSTAL DATA
#----------------------------------------------------------------------
data_VESTA_phase_1

_chemical_name_common                  'Mg   Al   Hf   N                      '
_cell_length_a                         9.807297
_cell_length_b                         9.824097
_cell_length_c                         10.163420
_cell_angle_alpha                      89.831314
_cell_angle_beta                       89.689445
_cell_angle_gamma                      60.021263
_cell_volume                           848.201535
_space_group_name_H-M_alt              'P 1'
_space_group_IT_number                 1

loop_
_space_group_symop_operation_xyz
   'x, y, z'

loop_
   _atom_site_label
   _atom_site_occupancy
   _atom_site_fract_x
   _atom_site_fract_y
   _atom_site_fract_z
   _atom_site_adp_type
   _atom_site_U_iso_or_equiv
   _atom_site_type_symbol
   Mg1        1.0     0.121072     0.090450     0.374173    Uiso  ? Mg
   Mg2        1.0     0.552366     0.538690     0.075888    Uiso  ? Mg
   Mg3        1.0     0.223814     0.867622     0.075461    Uiso  ? Mg
   Mg4        1.0     0.768108     0.758159     0.889116    Uiso  ? Mg
   Mg5        1.0     0.544102     0.880054     0.122541    Uiso  ? Mg
   Al1        1.0     0.220920     0.211658     0.133098    Uiso  ? Al
   Al2        1.0     0.899299     0.205274     0.633879    Uiso  ? Al
   Al3        1.0     0.428209     0.093203     0.386327    Uiso  ? Al
   Al4        1.0     0.534607     0.210844     0.137133    Uiso  ? Al
   Al5        1.0     0.116244     0.092371     0.885422    Uiso  ? Al
   Al6        1.0     0.216952     0.194098     0.633758    Uiso  ? Al
   Al7        1.0     0.900542     0.222317     0.132440    Uiso  ? Al
   Al8        1.0     0.439019     0.091810     0.883216    Uiso  ? Al
   Al9        1.0     0.117517     0.416929     0.389658    Uiso  ? Al
   Al10       1.0     0.227791     0.542508     0.074111    Uiso  ? Al
   Al11       1.0     0.778044     0.432079     0.883039    Uiso  ? Al
   Al12       1.0     0.881568     0.539704     0.631179    Uiso  ? Al
   Al13       1.0     0.433528     0.441941     0.324065    Uiso  ? Al
   Al14       1.0     0.216265     0.550809     0.570919    Uiso  ? Al
   Al15       1.0     0.781414     0.423529     0.386684    Uiso  ? Al
   Al16       1.0     0.898711     0.527242     0.134594    Uiso  ? Al
   Al17       1.0     0.441707     0.447375     0.814844    Uiso  ? Al
   Al18       1.0     0.549941     0.550467     0.569212    Uiso  ? Al
   Al19       1.0     0.128192     0.747871     0.319985    Uiso  ? Al
   Al20       1.0     0.900559     0.861653     0.570630    Uiso  ? Al
   Al21       1.0     0.435753     0.757131     0.312988    Uiso  ? Al
   Al22       1.0     0.117303     0.768511     0.820942    Uiso  ? Al
   Al23       1.0     0.225670     0.867143     0.571355    Uiso  ? Al
   Al24       1.0     0.906487     0.850058     0.081849    Uiso  ? Al
   Al25       1.0     0.439298     0.761224     0.821380    Uiso  ? Al
   Al26       1.0     0.554839     0.869612     0.635540    Uiso  ? Al
   Hf1        1.0     0.771911     0.104148     0.892319    Uiso  ? Hf
   Hf2        1.0     0.783851     0.095483     0.349752    Uiso  ? Hf
   Hf3        1.0     0.548274     0.209440     0.606170    Uiso  ? Hf
   Hf4        1.0     0.112364     0.428844     0.865167    Uiso  ? Hf
   Hf5        1.0     0.773937     0.754646     0.351892    Uiso  ? Hf
   N1         1.0     0.228597     0.215953     0.319808    Uiso  ? N
   N2         1.0     0.106271     0.114136     0.073346    Uiso  ? N
   N3         1.0     0.895416     0.211343     0.824962    Uiso  ? N
   N4         1.0     0.793334     0.089613     0.579742    Uiso  ? N
   N5         1.0     0.537955     0.212903     0.359354    Uiso  ? N
   N6         1.0     0.432841     0.113687     0.068196    Uiso  ? N
   N7         1.0     0.228722     0.190842     0.820764    Uiso  ? N
   N8         1.0     0.109505     0.092881     0.583683    Uiso  ? N
   N9         1.0     0.888723     0.222409     0.316901    Uiso  ? N
   N10        1.0     0.769754     0.098356     0.109286    Uiso  ? N
   N11        1.0     0.538951     0.213641     0.820506    Uiso  ? N
   N12        1.0     0.430325     0.085901     0.575344    Uiso  ? N
   N13        1.0     0.221698     0.538095     0.384634    Uiso  ? N
   N14        1.0     0.111269     0.429485     0.072952    Uiso  ? N
   N15        1.0     0.878838     0.536579     0.816133    Uiso  ? N
   N16        1.0     0.782145     0.422549     0.576391    Uiso  ? N
   N17        1.0     0.554805     0.537437     0.378890    Uiso  ? N
   N18        1.0     0.432414     0.424945     0.139005    Uiso  ? N
   N19        1.0     0.234656     0.553821     0.879005    Uiso  ? N
   N20        1.0     0.111293     0.423270     0.591164    Uiso  ? N
   N21        1.0     0.904914     0.511339     0.327852    Uiso  ? N
   N22        1.0     0.796644     0.424167     0.068637    Uiso  ? N
   N23        1.0     0.558321     0.538650     0.862682    Uiso  ? N
   N24        1.0     0.429979     0.453370     0.624257    Uiso  ? N
   N25        1.0     0.231871     0.847587     0.384862    Uiso  ? N
   N26        1.0     0.110722     0.747795     0.137353    Uiso  ? N
   N27        1.0     0.907283     0.865245     0.890041    Uiso  ? N
   N28        1.0     0.775481     0.758848     0.576914    Uiso  ? N
   N29        1.0     0.535251     0.884113     0.341049    Uiso  ? N
   N30        1.0     0.440652     0.755185     0.134165    Uiso  ? N
   N31        1.0     0.222728     0.873983     0.864598    Uiso  ? N
   N32        1.0     0.107484     0.761275     0.633081    Uiso  ? N
   N33        1.0     0.915357     0.856267     0.378239    Uiso  ? N
   N34        1.0     0.791369     0.751031     0.119343    Uiso  ? N
   N35        1.0     0.544127     0.883587     0.826669    Uiso  ? N
   N36        1.0     0.442487     0.759189     0.627688    Uiso  ? N
