
#======================================================================
# CRYSTAL DATA
#----------------------------------------------------------------------
data_VESTA_phase_1

_chemical_name_common                  'Mg   Al   Hf   N                      '
_cell_length_a                         9.848620
_cell_length_b                         9.864033
_cell_length_c                         9.962304
_cell_angle_alpha                      89.955246
_cell_angle_beta                       89.414810
_cell_angle_gamma                      60.116169
_cell_volume                           839.072548
_space_group_name_H-M_alt              'P 1'
_space_group_IT_number                 1

loop_
_space_group_symop_operation_xyz
   'x, y, z'

loop_
   _atom_site_label
   _atom_site_occupancy
   _atom_site_fract_x
   _atom_site_fract_y
   _atom_site_fract_z
   _atom_site_adp_type
   _atom_site_U_iso_or_equiv
   _atom_site_type_symbol
   Mg1        1.0     0.117037     0.095047     0.368953    Uiso  ? Mg
   Mg2        1.0     0.567073     0.524866     0.120243    Uiso  ? Mg
   Mg3        1.0     0.211772     0.874734     0.087322    Uiso  ? Mg
   Mg4        1.0     0.772237     0.758131     0.881417    Uiso  ? Mg
   Mg5        1.0     0.551293     0.883991     0.113674    Uiso  ? Mg
   Al1        1.0     0.220884     0.211819     0.134505    Uiso  ? Al
   Al2        1.0     0.900032     0.204769     0.630179    Uiso  ? Al
   Al3        1.0     0.428409     0.094140     0.380977    Uiso  ? Al
   Al4        1.0     0.530394     0.217812     0.140369    Uiso  ? Al
   Al5        1.0     0.117908     0.090240     0.885131    Uiso  ? Al
   Al6        1.0     0.218384     0.191521     0.629657    Uiso  ? Al
   Al7        1.0     0.900129     0.222885     0.133171    Uiso  ? Al
   Al8        1.0     0.436851     0.093409     0.886323    Uiso  ? Al
   Al9        1.0     0.115358     0.419528     0.390785    Uiso  ? Al
   Al10       1.0     0.223392     0.532912     0.116936    Uiso  ? Al
   Al11       1.0     0.778487     0.429959     0.881396    Uiso  ? Al
   Al12       1.0     0.879122     0.541026     0.628391    Uiso  ? Al
   Al13       1.0     0.440282     0.446320     0.383377    Uiso  ? Al
   Al14       1.0     0.217530     0.548368     0.596516    Uiso  ? Al
   Al15       1.0     0.770158     0.431249     0.387585    Uiso  ? Al
   Al16       1.0     0.897956     0.527349     0.133800    Uiso  ? Al
   Al17       1.0     0.440967     0.436737     0.886493    Uiso  ? Al
   Al18       1.0     0.552448     0.549555     0.640515    Uiso  ? Al
   Al19       1.0     0.123569     0.750414     0.322151    Uiso  ? Al
   Al20       1.0     0.898344     0.864113     0.570396    Uiso  ? Al
   Al21       1.0     0.438321     0.759413     0.300753    Uiso  ? Al
   Al22       1.0     0.122016     0.768863     0.813578    Uiso  ? Al
   Al23       1.0     0.233297     0.864955     0.560855    Uiso  ? Al
   Al24       1.0     0.908540     0.846664     0.079190    Uiso  ? Al
   Al25       1.0     0.441489     0.762425     0.894777    Uiso  ? Al
   Al26       1.0     0.546693     0.866823     0.642870    Uiso  ? Al
   Hf1        1.0     0.776455     0.100438     0.891007    Uiso  ? Hf
   Hf2        1.0     0.780755     0.097804     0.347155    Uiso  ? Hf
   Hf3        1.0     0.547552     0.209250     0.616240    Uiso  ? Hf
   Hf4        1.0     0.112354     0.429479     0.861233    Uiso  ? Hf
   Hf5        1.0     0.769781     0.756287     0.352955    Uiso  ? Hf
   N1         1.0     0.226411     0.218183     0.323231    Uiso  ? N
   N2         1.0     0.105907     0.116161     0.077683    Uiso  ? N
   N3         1.0     0.898056     0.209480     0.825071    Uiso  ? N
   N4         1.0     0.789581     0.091617     0.580026    Uiso  ? N
   N5         1.0     0.534036     0.218548     0.341218    Uiso  ? N
   N6         1.0     0.430926     0.116992     0.072766    Uiso  ? N
   N7         1.0     0.229398     0.190047     0.820461    Uiso  ? N
   N8         1.0     0.110467     0.091039     0.580160    Uiso  ? N
   N9         1.0     0.884145     0.226249     0.321058    Uiso  ? N
   N10        1.0     0.773917     0.096547     0.109095    Uiso  ? N
   N11        1.0     0.539754     0.213330     0.826619    Uiso  ? N
   N12        1.0     0.433619     0.084436     0.574149    Uiso  ? N
   N13        1.0     0.220778     0.535950     0.364797    Uiso  ? N
   N14        1.0     0.111767     0.429337     0.075378    Uiso  ? N
   N15        1.0     0.878357     0.535415     0.816401    Uiso  ? N
   N16        1.0     0.775296     0.425477     0.579805    Uiso  ? N
   N17        1.0     0.560288     0.537150     0.330580    Uiso  ? N
   N18        1.0     0.436380     0.420046     0.076606    Uiso  ? N
   N19        1.0     0.233253     0.547654     0.828395    Uiso  ? N
   N20        1.0     0.109809     0.423858     0.590467    Uiso  ? N
   N21        1.0     0.901676     0.513849     0.330766    Uiso  ? N
   N22        1.0     0.797621     0.422936     0.067490    Uiso  ? N
   N23        1.0     0.560217     0.533186     0.837330    Uiso  ? N
   N24        1.0     0.439991     0.446293     0.577387    Uiso  ? N
   N25        1.0     0.231524     0.852643     0.364896    Uiso  ? N
   N26        1.0     0.110134     0.745602     0.134917    Uiso  ? N
   N27        1.0     0.910459     0.863370     0.883705    Uiso  ? N
   N28        1.0     0.772311     0.762296     0.580690    Uiso  ? N
   N29        1.0     0.532485     0.886691     0.326738    Uiso  ? N
   N30        1.0     0.446037     0.757007     0.095387    Uiso  ? N
   N31        1.0     0.221334     0.873218     0.871141    Uiso  ? N
   N32        1.0     0.107918     0.768469     0.620484    Uiso  ? N
   N33        1.0     0.910400     0.858603     0.374736    Uiso  ? N
   N34        1.0     0.794527     0.748158     0.116116    Uiso  ? N
   N35        1.0     0.542080     0.881838     0.838122    Uiso  ? N
   N36        1.0     0.444227     0.759412     0.606154    Uiso  ? N
