
#======================================================================
# CRYSTAL DATA
#----------------------------------------------------------------------
data_VESTA_phase_1

_chemical_name_common                  'Mg   Al   Hf   N                      '
_cell_length_a                         9.777350
_cell_length_b                         9.798934
_cell_length_c                         10.212617
_cell_angle_alpha                      89.882233
_cell_angle_beta                       89.694130
_cell_angle_gamma                      60.199268
_cell_volume                           849.043503
_space_group_name_H-M_alt              'P 1'
_space_group_IT_number                 1

loop_
_space_group_symop_operation_xyz
   'x, y, z'

loop_
   _atom_site_label
   _atom_site_occupancy
   _atom_site_fract_x
   _atom_site_fract_y
   _atom_site_fract_z
   _atom_site_adp_type
   _atom_site_U_iso_or_equiv
   _atom_site_type_symbol
   Mg1        1.0     0.110642     0.093091     0.375829    Uiso  ? Mg
   Mg2        1.0     0.548369     0.545407     0.076417    Uiso  ? Mg
   Mg3        1.0     0.225310     0.868599     0.076707    Uiso  ? Mg
   Mg4        1.0     0.766734     0.755861     0.892325    Uiso  ? Mg
   Mg5        1.0     0.546169     0.884095     0.129747    Uiso  ? Mg
   Al1        1.0     0.223463     0.211214     0.136895    Uiso  ? Al
   Al2        1.0     0.899216     0.208970     0.640931    Uiso  ? Al
   Al3        1.0     0.427704     0.095681     0.391423    Uiso  ? Al
   Al4        1.0     0.532553     0.224773     0.058049    Uiso  ? Al
   Al5        1.0     0.119544     0.092637     0.888269    Uiso  ? Al
   Al6        1.0     0.215339     0.194836     0.634533    Uiso  ? Al
   Al7        1.0     0.900502     0.217364     0.119180    Uiso  ? Al
   Al8        1.0     0.434782     0.087172     0.883220    Uiso  ? Al
   Al9        1.0     0.115525     0.416152     0.392653    Uiso  ? Al
   Al10       1.0     0.227308     0.545112     0.077004    Uiso  ? Al
   Al11       1.0     0.776699     0.433847     0.886505    Uiso  ? Al
   Al12       1.0     0.880336     0.536649     0.634638    Uiso  ? Al
   Al13       1.0     0.433981     0.434302     0.321113    Uiso  ? Al
   Al14       1.0     0.218409     0.548634     0.571235    Uiso  ? Al
   Al15       1.0     0.772772     0.423554     0.354620    Uiso  ? Al
   Al16       1.0     0.900638     0.531107     0.135844    Uiso  ? Al
   Al17       1.0     0.443160     0.449879     0.818148    Uiso  ? Al
   Al18       1.0     0.555120     0.546009     0.565982    Uiso  ? Al
   Al19       1.0     0.123780     0.753082     0.324070    Uiso  ? Al
   Al20       1.0     0.900217     0.865147     0.577182    Uiso  ? Al
   Al21       1.0     0.433908     0.759519     0.315077    Uiso  ? Al
   Al22       1.0     0.123305     0.763316     0.819674    Uiso  ? Al
   Al23       1.0     0.226697     0.866453     0.571259    Uiso  ? Al
   Al24       1.0     0.910273     0.847810     0.072374    Uiso  ? Al
   Al25       1.0     0.440357     0.761126     0.818813    Uiso  ? Al
   Al26       1.0     0.556704     0.868247     0.634927    Uiso  ? Al
   Hf1        1.0     0.786861     0.086844     0.855088    Uiso  ? Hf
   Hf2        1.0     0.764225     0.093247     0.301485    Uiso  ? Hf
   Hf3        1.0     0.551644     0.209649     0.598721    Uiso  ? Hf
   Hf4        1.0     0.114003     0.429317     0.868252    Uiso  ? Hf
   Hf5        1.0     0.776851     0.754194     0.360275    Uiso  ? Hf
   N1         1.0     0.228147     0.214744     0.323476    Uiso  ? N
   N2         1.0     0.109745     0.114087     0.074102    Uiso  ? N
   N3         1.0     0.901288     0.215339     0.834696    Uiso  ? N
   N4         1.0     0.794038     0.079084     0.638371    Uiso  ? N
   N5         1.0     0.541851     0.217268     0.388286    Uiso  ? N
   N6         1.0     0.429830     0.111495     0.066411    Uiso  ? N
   N7         1.0     0.228221     0.192027     0.819645    Uiso  ? N
   N8         1.0     0.106631     0.093179     0.584527    Uiso  ? N
   N9         1.0     0.879243     0.213322     0.308077    Uiso  ? N
   N10        1.0     0.770282     0.097382     0.088685    Uiso  ? N
   N11        1.0     0.535105     0.223438     0.855064    Uiso  ? N
   N12        1.0     0.430571     0.086214     0.581088    Uiso  ? N
   N13        1.0     0.219957     0.538932     0.384399    Uiso  ? N
   N14        1.0     0.112997     0.429704     0.075072    Uiso  ? N
   N15        1.0     0.880478     0.535806     0.820307    Uiso  ? N
   N16        1.0     0.778876     0.420606     0.583166    Uiso  ? N
   N17        1.0     0.551262     0.537688     0.375197    Uiso  ? N
   N18        1.0     0.436079     0.419472     0.136569    Uiso  ? N
   N19        1.0     0.237347     0.553967     0.882948    Uiso  ? N
   N20        1.0     0.110365     0.422875     0.591607    Uiso  ? N
   N21        1.0     0.904549     0.510597     0.326818    Uiso  ? N
   N22        1.0     0.792658     0.428456     0.079210    Uiso  ? N
   N23        1.0     0.557316     0.543479     0.867940    Uiso  ? N
   N24        1.0     0.431568     0.451151     0.630293    Uiso  ? N
   N25        1.0     0.231285     0.849901     0.386500    Uiso  ? N
   N26        1.0     0.109346     0.750828     0.141592    Uiso  ? N
   N27        1.0     0.916923     0.849190     0.887975    Uiso  ? N
   N28        1.0     0.778541     0.755601     0.578821    Uiso  ? N
   N29        1.0     0.538996     0.885806     0.345681    Uiso  ? N
   N30        1.0     0.440749     0.759964     0.138049    Uiso  ? N
   N31        1.0     0.224206     0.874128     0.865168    Uiso  ? N
   N32        1.0     0.111378     0.758378     0.632591    Uiso  ? N
   N33        1.0     0.906044     0.873727     0.386196    Uiso  ? N
   N34        1.0     0.792288     0.754627     0.121641    Uiso  ? N
   N35        1.0     0.546417     0.882678     0.823687    Uiso  ? N
   N36        1.0     0.444688     0.756343     0.625894    Uiso  ? N
