
#======================================================================
# CRYSTAL DATA
#----------------------------------------------------------------------
data_VESTA_phase_1

_chemical_name_common                  'Mg   Al   Hf   N                      '
_cell_length_a                         9.859008
_cell_length_b                         9.867023
_cell_length_c                         10.004624
_cell_angle_alpha                      89.850365
_cell_angle_beta                       89.491783
_cell_angle_gamma                      59.998116
_cell_volume                           842.799860
_space_group_name_H-M_alt              'P 1'
_space_group_IT_number                 1

loop_
_space_group_symop_operation_xyz
   'x, y, z'

loop_
   _atom_site_label
   _atom_site_occupancy
   _atom_site_fract_x
   _atom_site_fract_y
   _atom_site_fract_z
   _atom_site_adp_type
   _atom_site_U_iso_or_equiv
   _atom_site_type_symbol
   Mg1        1.0     0.120412     0.089744     0.371463    Uiso  ? Mg
   Mg2        1.0     0.567773     0.532853     0.117805    Uiso  ? Mg
   Mg3        1.0     0.219035     0.870403     0.075719    Uiso  ? Mg
   Mg4        1.0     0.769953     0.758546     0.886222    Uiso  ? Mg
   Mg5        1.0     0.546215     0.881048     0.116142    Uiso  ? Mg
   Al1        1.0     0.219820     0.211998     0.133202    Uiso  ? Al
   Al2        1.0     0.900016     0.205274     0.631450    Uiso  ? Al
   Al3        1.0     0.428237     0.094013     0.381701    Uiso  ? Al
   Al4        1.0     0.535194     0.209523     0.138202    Uiso  ? Al
   Al5        1.0     0.115451     0.093998     0.884076    Uiso  ? Al
   Al6        1.0     0.217905     0.193117     0.630037    Uiso  ? Al
   Al7        1.0     0.901221     0.221546     0.133530    Uiso  ? Al
   Al8        1.0     0.437051     0.093295     0.886780    Uiso  ? Al
   Al9        1.0     0.114374     0.417802     0.388011    Uiso  ? Al
   Al10       1.0     0.219298     0.544531     0.075589    Uiso  ? Al
   Al11       1.0     0.779066     0.431096     0.882345    Uiso  ? Al
   Al12       1.0     0.879888     0.541543     0.628344    Uiso  ? Al
   Al13       1.0     0.437044     0.440163     0.339279    Uiso  ? Al
   Al14       1.0     0.219491     0.549523     0.567852    Uiso  ? Al
   Al15       1.0     0.771445     0.428829     0.387282    Uiso  ? Al
   Al16       1.0     0.899230     0.526672     0.133656    Uiso  ? Al
   Al17       1.0     0.447911     0.435282     0.887264    Uiso  ? Al
   Al18       1.0     0.555552     0.541976     0.635123    Uiso  ? Al
   Al19       1.0     0.126467     0.749093     0.319542    Uiso  ? Al
   Al20       1.0     0.899823     0.862330     0.571437    Uiso  ? Al
   Al21       1.0     0.435426     0.758716     0.304183    Uiso  ? Al
   Al22       1.0     0.118869     0.767340     0.818335    Uiso  ? Al
   Al23       1.0     0.229862     0.864545     0.570071    Uiso  ? Al
   Al24       1.0     0.906017     0.850548     0.082106    Uiso  ? Al
   Al25       1.0     0.435808     0.768416     0.835136    Uiso  ? Al
   Al26       1.0     0.552504     0.871148     0.636157    Uiso  ? Al
   Hf1        1.0     0.777503     0.100346     0.891606    Uiso  ? Hf
   Hf2        1.0     0.781863     0.097703     0.351673    Uiso  ? Hf
   Hf3        1.0     0.545355     0.213214     0.618200    Uiso  ? Hf
   Hf4        1.0     0.111698     0.430185     0.858479    Uiso  ? Hf
   Hf5        1.0     0.771653     0.756153     0.350932    Uiso  ? Hf
   N1         1.0     0.226176     0.216419     0.322096    Uiso  ? N
   N2         1.0     0.105858     0.114826     0.075168    Uiso  ? N
   N3         1.0     0.896646     0.211616     0.824944    Uiso  ? N
   N4         1.0     0.789918     0.091930     0.581335    Uiso  ? N
   N5         1.0     0.535630     0.212948     0.338813    Uiso  ? N
   N6         1.0     0.430876     0.114116     0.072247    Uiso  ? N
   N7         1.0     0.229396     0.191082     0.820325    Uiso  ? N
   N8         1.0     0.110472     0.091432     0.583024    Uiso  ? N
   N9         1.0     0.887147     0.223501     0.320676    Uiso  ? N
   N10        1.0     0.774218     0.095404     0.108749    Uiso  ? N
   N11        1.0     0.539464     0.214914     0.831398    Uiso  ? N
   N12        1.0     0.431697     0.088103     0.573787    Uiso  ? N
   N13        1.0     0.219432     0.536905     0.374762    Uiso  ? N
   N14        1.0     0.110225     0.428558     0.072373    Uiso  ? N
   N15        1.0     0.877623     0.537052     0.816035    Uiso  ? N
   N16        1.0     0.777233     0.425158     0.578920    Uiso  ? N
   N17        1.0     0.560541     0.534102     0.337766    Uiso  ? N
   N18        1.0     0.438731     0.420290     0.096817    Uiso  ? N
   N19        1.0     0.230494     0.555840     0.876280    Uiso  ? N
   N20        1.0     0.110528     0.425018     0.591811    Uiso  ? N
   N21        1.0     0.901428     0.512967     0.330199    Uiso  ? N
   N22        1.0     0.798385     0.422677     0.067784    Uiso  ? N
   N23        1.0     0.562779     0.532635     0.836232    Uiso  ? N
   N24        1.0     0.434604     0.447490     0.595844    Uiso  ? N
   N25        1.0     0.233737     0.846590     0.379523    Uiso  ? N
   N26        1.0     0.109520     0.748971     0.135248    Uiso  ? N
   N27        1.0     0.908505     0.863418     0.886187    Uiso  ? N
   N28        1.0     0.774045     0.761283     0.578513    Uiso  ? N
   N29        1.0     0.533593     0.883853     0.337547    Uiso  ? N
   N30        1.0     0.440364     0.759840     0.116299    Uiso  ? N
   N31        1.0     0.217937     0.877039     0.863648    Uiso  ? N
   N32        1.0     0.108817     0.760596     0.628061    Uiso  ? N
   N33        1.0     0.913151     0.858153     0.376130    Uiso  ? N
   N34        1.0     0.792724     0.749840     0.117626    Uiso  ? N
   N35        1.0     0.544331     0.885870     0.831137    Uiso  ? N
   N36        1.0     0.441708     0.761431     0.632062    Uiso  ? N
