
#======================================================================
# CRYSTAL DATA
#----------------------------------------------------------------------
data_VESTA_phase_1

_chemical_name_common                  'Mg   Al   Hf   N                      '
_cell_length_a                         9.806710
_cell_length_b                         9.823853
_cell_length_c                         10.160684
_cell_angle_alpha                      89.848801
_cell_angle_beta                       89.688934
_cell_angle_gamma                      60.054604
_cell_volume                           848.185951
_space_group_name_H-M_alt              'P 1'
_space_group_IT_number                 1

loop_
_space_group_symop_operation_xyz
   'x, y, z'

loop_
   _atom_site_label
   _atom_site_occupancy
   _atom_site_fract_x
   _atom_site_fract_y
   _atom_site_fract_z
   _atom_site_adp_type
   _atom_site_U_iso_or_equiv
   _atom_site_type_symbol
   Mg1        1.0     0.118950     0.090473     0.373825    Uiso  ? Mg
   Mg2        1.0     0.552291     0.540031     0.076374    Uiso  ? Mg
   Mg3        1.0     0.223769     0.867832     0.076436    Uiso  ? Mg
   Mg4        1.0     0.768137     0.756453     0.888987    Uiso  ? Mg
   Mg5        1.0     0.544802     0.880428     0.123668    Uiso  ? Mg
   Al1        1.0     0.221023     0.212098     0.134395    Uiso  ? Al
   Al2        1.0     0.900875     0.205764     0.636685    Uiso  ? Al
   Al3        1.0     0.429166     0.093933     0.388292    Uiso  ? Al
   Al4        1.0     0.534407     0.216013     0.101428    Uiso  ? Al
   Al5        1.0     0.117231     0.092758     0.887016    Uiso  ? Al
   Al6        1.0     0.216768     0.193692     0.633776    Uiso  ? Al
   Al7        1.0     0.900608     0.223921     0.128354    Uiso  ? Al
   Al8        1.0     0.437096     0.090977     0.881349    Uiso  ? Al
   Al9        1.0     0.117432     0.416811     0.390363    Uiso  ? Al
   Al10       1.0     0.226063     0.544202     0.075390    Uiso  ? Al
   Al11       1.0     0.778044     0.432899     0.884182    Uiso  ? Al
   Al12       1.0     0.881865     0.538925     0.631263    Uiso  ? Al
   Al13       1.0     0.435050     0.438307     0.325026    Uiso  ? Al
   Al14       1.0     0.217097     0.550260     0.570972    Uiso  ? Al
   Al15       1.0     0.780468     0.422269     0.386535    Uiso  ? Al
   Al16       1.0     0.898663     0.528438     0.135814    Uiso  ? Al
   Al17       1.0     0.441604     0.447847     0.815807    Uiso  ? Al
   Al18       1.0     0.549471     0.550114     0.569384    Uiso  ? Al
   Al19       1.0     0.126355     0.750234     0.322047    Uiso  ? Al
   Al20       1.0     0.899770     0.863902     0.574905    Uiso  ? Al
   Al21       1.0     0.436206     0.756887     0.313550    Uiso  ? Al
   Al22       1.0     0.120029     0.766025     0.820634    Uiso  ? Al
   Al23       1.0     0.225897     0.866813     0.571202    Uiso  ? Al
   Al24       1.0     0.906830     0.849458     0.076546    Uiso  ? Al
   Al25       1.0     0.439515     0.761061     0.821446    Uiso  ? Al
   Al26       1.0     0.555407     0.868820     0.635634    Uiso  ? Al
   Hf1        1.0     0.778727     0.095582     0.862313    Uiso  ? Hf
   Hf2        1.0     0.775932     0.094959     0.321126    Uiso  ? Hf
   Hf3        1.0     0.548626     0.209616     0.602521    Uiso  ? Hf
   Hf4        1.0     0.112692     0.428992     0.865346    Uiso  ? Hf
   Hf5        1.0     0.775299     0.755139     0.354381    Uiso  ? Hf
   N1         1.0     0.229618     0.215597     0.320994    Uiso  ? N
   N2         1.0     0.107152     0.114079     0.074883    Uiso  ? N
   N3         1.0     0.899253     0.214758     0.828458    Uiso  ? N
   N4         1.0     0.794222     0.083019     0.620883    Uiso  ? N
   N5         1.0     0.541035     0.215423     0.378834    Uiso  ? N
   N6         1.0     0.429894     0.112191     0.066363    Uiso  ? N
   N7         1.0     0.227757     0.191156     0.820438    Uiso  ? N
   N8         1.0     0.108917     0.092795     0.582920    Uiso  ? N
   N9         1.0     0.885025     0.220470     0.315989    Uiso  ? N
   N10        1.0     0.767375     0.098729     0.102326    Uiso  ? N
   N11        1.0     0.533731     0.218236     0.829794    Uiso  ? N
   N12        1.0     0.430397     0.084610     0.577885    Uiso  ? N
   N13        1.0     0.220959     0.538795     0.384087    Uiso  ? N
   N14        1.0     0.111193     0.429808     0.073718    Uiso  ? N
   N15        1.0     0.879387     0.536135     0.816081    Uiso  ? N
   N16        1.0     0.782132     0.421034     0.576293    Uiso  ? N
   N17        1.0     0.554162     0.537670     0.378727    Uiso  ? N
   N18        1.0     0.432747     0.423849     0.139290    Uiso  ? N
   N19        1.0     0.235303     0.553867     0.880861    Uiso  ? N
   N20        1.0     0.111691     0.422797     0.591319    Uiso  ? N
   N21        1.0     0.904566     0.510934     0.328802    Uiso  ? N
   N22        1.0     0.795978     0.426600     0.069722    Uiso  ? N
   N23        1.0     0.558375     0.539364     0.863519    Uiso  ? N
   N24        1.0     0.430011     0.453390     0.626245    Uiso  ? N
   N25        1.0     0.232585     0.847867     0.384910    Uiso  ? N
   N26        1.0     0.108629     0.749771     0.139152    Uiso  ? N
   N27        1.0     0.911280     0.858013     0.889026    Uiso  ? N
   N28        1.0     0.776368     0.757525     0.577264    Uiso  ? N
   N29        1.0     0.537143     0.884676     0.341603    Uiso  ? N
   N30        1.0     0.440633     0.756057     0.134756    Uiso  ? N
   N31        1.0     0.222710     0.874334     0.865252    Uiso  ? N
   N32        1.0     0.109339     0.759783     0.632874    Uiso  ? N
   N33        1.0     0.911300     0.865335     0.383513    Uiso  ? N
   N34        1.0     0.791747     0.751988     0.120321    Uiso  ? N
   N35        1.0     0.544945     0.882947     0.826411    Uiso  ? N
   N36        1.0     0.442639     0.758841     0.627737    Uiso  ? N
