
#======================================================================
# CRYSTAL DATA
#----------------------------------------------------------------------
data_VESTA_phase_1

_chemical_name_common                  'Mg   Al   Hf   N                      '
_cell_length_a                         9.839449
_cell_length_b                         9.859694
_cell_length_c                         9.972783
_cell_angle_alpha                      89.983994
_cell_angle_beta                       89.458061
_cell_angle_gamma                      60.133480
_cell_volume                           838.955088
_space_group_name_H-M_alt              'P 1'
_space_group_IT_number                 1

loop_
_space_group_symop_operation_xyz
   'x, y, z'

loop_
   _atom_site_label
   _atom_site_occupancy
   _atom_site_fract_x
   _atom_site_fract_y
   _atom_site_fract_z
   _atom_site_adp_type
   _atom_site_U_iso_or_equiv
   _atom_site_type_symbol
   Mg1        1.0     0.116876     0.095378     0.369350    Uiso  ? Mg
   Mg2        1.0     0.566307     0.524561     0.119909    Uiso  ? Mg
   Mg3        1.0     0.211719     0.874476     0.086727    Uiso  ? Mg
   Mg4        1.0     0.772172     0.757651     0.881256    Uiso  ? Mg
   Mg5        1.0     0.551376     0.884088     0.113726    Uiso  ? Mg
   Al1        1.0     0.220981     0.211388     0.135047    Uiso  ? Al
   Al2        1.0     0.899973     0.204702     0.630172    Uiso  ? Al
   Al3        1.0     0.428550     0.093986     0.380901    Uiso  ? Al
   Al4        1.0     0.530282     0.218311     0.139550    Uiso  ? Al
   Al5        1.0     0.117662     0.090525     0.884983    Uiso  ? Al
   Al6        1.0     0.218075     0.192906     0.629436    Uiso  ? Al
   Al7        1.0     0.899967     0.222831     0.132952    Uiso  ? Al
   Al8        1.0     0.436696     0.093641     0.886125    Uiso  ? Al
   Al9        1.0     0.117132     0.420278     0.390158    Uiso  ? Al
   Al10       1.0     0.224517     0.529851     0.138536    Uiso  ? Al
   Al11       1.0     0.778264     0.429768     0.881233    Uiso  ? Al
   Al12       1.0     0.880541     0.540673     0.628048    Uiso  ? Al
   Al13       1.0     0.438789     0.447007     0.382521    Uiso  ? Al
   Al14       1.0     0.220306     0.546424     0.619600    Uiso  ? Al
   Al15       1.0     0.770223     0.431252     0.387510    Uiso  ? Al
   Al16       1.0     0.897672     0.527395     0.134443    Uiso  ? Al
   Al17       1.0     0.438958     0.437621     0.887730    Uiso  ? Al
   Al18       1.0     0.552317     0.549535     0.639814    Uiso  ? Al
   Al19       1.0     0.122635     0.752652     0.321159    Uiso  ? Al
   Al20       1.0     0.898411     0.863822     0.570111    Uiso  ? Al
   Al21       1.0     0.438484     0.759235     0.300407    Uiso  ? Al
   Al22       1.0     0.120421     0.771131     0.813789    Uiso  ? Al
   Al23       1.0     0.233417     0.864927     0.560664    Uiso  ? Al
   Al24       1.0     0.909365     0.845827     0.078594    Uiso  ? Al
   Al25       1.0     0.441730     0.762323     0.894810    Uiso  ? Al
   Al26       1.0     0.546813     0.866759     0.642782    Uiso  ? Al
   Hf1        1.0     0.775767     0.100622     0.890850    Uiso  ? Hf
   Hf2        1.0     0.780790     0.097587     0.346551    Uiso  ? Hf
   Hf3        1.0     0.547464     0.209519     0.615386    Uiso  ? Hf
   Hf4        1.0     0.112401     0.429523     0.866866    Uiso  ? Hf
   Hf5        1.0     0.769739     0.756112     0.353011    Uiso  ? Hf
   N1         1.0     0.226469     0.217805     0.323513    Uiso  ? N
   N2         1.0     0.105852     0.116218     0.077226    Uiso  ? N
   N3         1.0     0.897755     0.209307     0.824955    Uiso  ? N
   N4         1.0     0.789550     0.091587     0.579732    Uiso  ? N
   N5         1.0     0.534401     0.218081     0.341083    Uiso  ? N
   N6         1.0     0.430869     0.116865     0.072448    Uiso  ? N
   N7         1.0     0.228373     0.191612     0.820436    Uiso  ? N
   N8         1.0     0.110547     0.091470     0.580415    Uiso  ? N
   N9         1.0     0.884100     0.226294     0.320771    Uiso  ? N
   N10        1.0     0.773567     0.096990     0.108591    Uiso  ? N
   N11        1.0     0.539053     0.213957     0.825848    Uiso  ? N
   N12        1.0     0.433797     0.084371     0.574216    Uiso  ? N
   N13        1.0     0.224054     0.531393     0.341405    Uiso  ? N
   N14        1.0     0.112112     0.429952     0.077616    Uiso  ? N
   N15        1.0     0.880086     0.534033     0.816301    Uiso  ? N
   N16        1.0     0.775469     0.425445     0.579829    Uiso  ? N
   N17        1.0     0.560260     0.537027     0.330351    Uiso  ? N
   N18        1.0     0.433722     0.420929     0.075846    Uiso  ? N
   N19        1.0     0.234104     0.545843     0.817603    Uiso  ? N
   N20        1.0     0.111552     0.425604     0.587905    Uiso  ? N
   N21        1.0     0.901933     0.513859     0.331091    Uiso  ? N
   N22        1.0     0.797403     0.423024     0.067195    Uiso  ? N
   N23        1.0     0.559428     0.533003     0.836900    Uiso  ? N
   N24        1.0     0.437523     0.447422     0.574752    Uiso  ? N
   N25        1.0     0.231825     0.852852     0.365327    Uiso  ? N
   N26        1.0     0.109955     0.746729     0.133631    Uiso  ? N
   N27        1.0     0.910096     0.863192     0.883096    Uiso  ? N
   N28        1.0     0.772303     0.762113     0.580873    Uiso  ? N
   N29        1.0     0.532432     0.886621     0.326651    Uiso  ? N
   N30        1.0     0.446229     0.756957     0.095098    Uiso  ? N
   N31        1.0     0.221577     0.873254     0.870813    Uiso  ? N
   N32        1.0     0.108034     0.768626     0.619561    Uiso  ? N
   N33        1.0     0.910496     0.858239     0.375117    Uiso  ? N
   N34        1.0     0.794445     0.748116     0.115914    Uiso  ? N
   N35        1.0     0.541931     0.881965     0.837893    Uiso  ? N
   N36        1.0     0.444258     0.759337     0.606188    Uiso  ? N
