
#======================================================================
# CRYSTAL DATA
#----------------------------------------------------------------------
data_VESTA_phase_1

_chemical_name_common                  'Mg   Al   Hf   N                      '
_cell_length_a                         9.800920
_cell_length_b                         9.825483
_cell_length_c                         10.162342
_cell_angle_alpha                      89.770081
_cell_angle_beta                       89.528168
_cell_angle_gamma                      59.992470
_cell_volume                           847.417721
_space_group_name_H-M_alt              'P 1'
_space_group_IT_number                 1

loop_
_space_group_symop_operation_xyz
   'x, y, z'

loop_
   _atom_site_label
   _atom_site_occupancy
   _atom_site_fract_x
   _atom_site_fract_y
   _atom_site_fract_z
   _atom_site_adp_type
   _atom_site_U_iso_or_equiv
   _atom_site_type_symbol
   Mg1        1.0     0.118586     0.088720     0.359113    Uiso  ? Mg
   Mg2        1.0     0.558442     0.539428     0.074209    Uiso  ? Mg
   Mg3        1.0     0.227204     0.864478     0.082305    Uiso  ? Mg
   Mg4        1.0     0.776760     0.764879     0.821060    Uiso  ? Mg
   Mg5        1.0     0.551654     0.877652     0.122706    Uiso  ? Mg
   Al1        1.0     0.222424     0.215073     0.136584    Uiso  ? Al
   Al2        1.0     0.892063     0.206254     0.567378    Uiso  ? Al
   Al3        1.0     0.428790     0.094772     0.389547    Uiso  ? Al
   Al4        1.0     0.536090     0.221814     0.062628    Uiso  ? Al
   Al5        1.0     0.123085     0.090428     0.895240    Uiso  ? Al
   Al6        1.0     0.215288     0.190283     0.637937    Uiso  ? Al
   Al7        1.0     0.894389     0.224586     0.072843    Uiso  ? Al
   Al8        1.0     0.436114     0.086522     0.884745    Uiso  ? Al
   Al9        1.0     0.119490     0.414703     0.398502    Uiso  ? Al
   Al10       1.0     0.225763     0.543179     0.074657    Uiso  ? Al
   Al11       1.0     0.768354     0.433233     0.813750    Uiso  ? Al
   Al12       1.0     0.885252     0.532399     0.592696    Uiso  ? Al
   Al13       1.0     0.435618     0.433593     0.321508    Uiso  ? Al
   Al14       1.0     0.220037     0.550688     0.574822    Uiso  ? Al
   Al15       1.0     0.774134     0.426822     0.324817    Uiso  ? Al
   Al16       1.0     0.890442     0.538482     0.087278    Uiso  ? Al
   Al17       1.0     0.442202     0.449416     0.820582    Uiso  ? Al
   Al18       1.0     0.552061     0.546301     0.567338    Uiso  ? Al
   Al19       1.0     0.122910     0.750691     0.322788    Uiso  ? Al
   Al20       1.0     0.901100     0.867633     0.577052    Uiso  ? Al
   Al21       1.0     0.437705     0.754803     0.315813    Uiso  ? Al
   Al22       1.0     0.123627     0.765472     0.821832    Uiso  ? Al
   Al23       1.0     0.225011     0.868036     0.568019    Uiso  ? Al
   Al24       1.0     0.906160     0.846874     0.072272    Uiso  ? Al
   Al25       1.0     0.439586     0.761932     0.821485    Uiso  ? Al
   Al26       1.0     0.547308     0.872439     0.629093    Uiso  ? Al
   Hf1        1.0     0.788586     0.092022     0.848740    Uiso  ? Hf
   Hf2        1.0     0.771244     0.097204     0.308643    Uiso  ? Hf
   Hf3        1.0     0.548999     0.209926     0.598519    Uiso  ? Hf
   Hf4        1.0     0.114708     0.429331     0.856000    Uiso  ? Hf
   Hf5        1.0     0.778442     0.753102     0.355340    Uiso  ? Hf
   N1         1.0     0.228805     0.218307     0.323403    Uiso  ? N
   N2         1.0     0.111333     0.110683     0.087895    Uiso  ? N
   N3         1.0     0.894878     0.222925     0.881774    Uiso  ? N
   N4         1.0     0.794720     0.084206     0.635033    Uiso  ? N
   N5         1.0     0.542912     0.213738     0.386674    Uiso  ? N
   N6         1.0     0.432449     0.109550     0.068700    Uiso  ? N
   N7         1.0     0.228178     0.188366     0.823525    Uiso  ? N
   N8         1.0     0.108691     0.091923     0.583429    Uiso  ? N
   N9         1.0     0.871188     0.216043     0.378843    Uiso  ? N
   N10        1.0     0.771771     0.100690     0.095934    Uiso  ? N
   N11        1.0     0.537129     0.221508     0.854367    Uiso  ? N
   N12        1.0     0.427310     0.089006     0.580644    Uiso  ? N
   N13        1.0     0.220682     0.537946     0.387367    Uiso  ? N
   N14        1.0     0.111980     0.428784     0.070618    Uiso  ? N
   N15        1.0     0.878123     0.535971     0.848342    Uiso  ? N
   N16        1.0     0.771499     0.421780     0.625459    Uiso  ? N
   N17        1.0     0.555221     0.533841     0.379613    Uiso  ? N
   N18        1.0     0.435557     0.420097     0.135658    Uiso  ? N
   N19        1.0     0.235878     0.555676     0.881726    Uiso  ? N
   N20        1.0     0.118104     0.421259     0.605699    Uiso  ? N
   N21        1.0     0.896721     0.512369     0.395437    Uiso  ? N
   N22        1.0     0.793036     0.425886     0.139618    Uiso  ? N
   N23        1.0     0.558062     0.541692     0.868070    Uiso  ? N
   N24        1.0     0.432031     0.450190     0.631496    Uiso  ? N
   N25        1.0     0.231271     0.847267     0.382352    Uiso  ? N
   N26        1.0     0.107488     0.748949     0.139777    Uiso  ? N
   N27        1.0     0.913490     0.854441     0.886979    Uiso  ? N
   N28        1.0     0.777887     0.763381     0.597308    Uiso  ? N
   N29        1.0     0.538123     0.881335     0.353789    Uiso  ? N
   N30        1.0     0.446196     0.754751     0.137423    Uiso  ? N
   N31        1.0     0.223728     0.874357     0.870050    Uiso  ? N
   N32        1.0     0.111420     0.760945     0.633653    Uiso  ? N
   N33        1.0     0.905687     0.872773     0.388149    Uiso  ? N
   N34        1.0     0.798398     0.749496     0.140532    Uiso  ? N
   N35        1.0     0.541842     0.884445     0.821667    Uiso  ? N
   N36        1.0     0.440957     0.756626     0.626256    Uiso  ? N
