
#======================================================================
# CRYSTAL DATA
#----------------------------------------------------------------------
data_VESTA_phase_1

_chemical_name_common                  'Mg   Al   Hf   N                      '
_cell_length_a                         9.763683
_cell_length_b                         9.783639
_cell_length_c                         10.199340
_cell_angle_alpha                      90.093292
_cell_angle_beta                       89.581009
_cell_angle_gamma                      60.074692
_cell_volume                           844.351956
_space_group_name_H-M_alt              'P 1'
_space_group_IT_number                 1

loop_
_space_group_symop_operation_xyz
   'x, y, z'

loop_
   _atom_site_label
   _atom_site_occupancy
   _atom_site_fract_x
   _atom_site_fract_y
   _atom_site_fract_z
   _atom_site_adp_type
   _atom_site_U_iso_or_equiv
   _atom_site_type_symbol
   Mg1        1.0     0.120320     0.089058     0.393763    Uiso  ? Mg
   Mg2        1.0     0.556473     0.542842     0.143309    Uiso  ? Mg
   Mg3        1.0     0.232429     0.871359     0.139215    Uiso  ? Mg
   Mg4        1.0     0.761983     0.759376     0.901559    Uiso  ? Mg
   Mg5        1.0     0.541446     0.877115     0.140255    Uiso  ? Mg
   Al1        1.0     0.222581     0.205116     0.146756    Uiso  ? Al
   Al2        1.0     0.896304     0.207775     0.645098    Uiso  ? Al
   Al3        1.0     0.428954     0.095978     0.392574    Uiso  ? Al
   Al4        1.0     0.532279     0.216151     0.150041    Uiso  ? Al
   Al5        1.0     0.117314     0.089818     0.894712    Uiso  ? Al
   Al6        1.0     0.216462     0.201417     0.643177    Uiso  ? Al
   Al7        1.0     0.901572     0.219330     0.144178    Uiso  ? Al
   Al8        1.0     0.437886     0.089696     0.897259    Uiso  ? Al
   Al9        1.0     0.119620     0.418526     0.397534    Uiso  ? Al
   Al10       1.0     0.227439     0.528074     0.149658    Uiso  ? Al
   Al11       1.0     0.772608     0.433880     0.893529    Uiso  ? Al
   Al12       1.0     0.883202     0.541551     0.640807    Uiso  ? Al
   Al13       1.0     0.437733     0.442775     0.393693    Uiso  ? Al
   Al14       1.0     0.218740     0.544928     0.639662    Uiso  ? Al
   Al15       1.0     0.775451     0.427391     0.399878    Uiso  ? Al
   Al16       1.0     0.895364     0.525822     0.148219    Uiso  ? Al
   Al17       1.0     0.439891     0.441175     0.901383    Uiso  ? Al
   Al18       1.0     0.555073     0.544616     0.644304    Uiso  ? Al
   Al19       1.0     0.125838     0.751413     0.326701    Uiso  ? Al
   Al20       1.0     0.899890     0.863160     0.575337    Uiso  ? Al
   Al21       1.0     0.438694     0.758586     0.401541    Uiso  ? Al
   Al22       1.0     0.110795     0.769356     0.830809    Uiso  ? Al
   Al23       1.0     0.222990     0.879035     0.640049    Uiso  ? Al
   Al24       1.0     0.908643     0.847439     0.092731    Uiso  ? Al
   Al25       1.0     0.441125     0.765036     0.892183    Uiso  ? Al
   Al26       1.0     0.552522     0.869270     0.644179    Uiso  ? Al
   Hf1        1.0     0.772830     0.103910     0.910941    Uiso  ? Hf
   Hf2        1.0     0.781871     0.098347     0.358961    Uiso  ? Hf
   Hf3        1.0     0.549099     0.209478     0.632964    Uiso  ? Hf
   Hf4        1.0     0.109541     0.429771     0.888984    Uiso  ? Hf
   Hf5        1.0     0.774096     0.754166     0.361113    Uiso  ? Hf
   N1         1.0     0.226373     0.213414     0.331805    Uiso  ? N
   N2         1.0     0.108023     0.109084     0.080348    Uiso  ? N
   N3         1.0     0.893939     0.210416     0.835555    Uiso  ? N
   N4         1.0     0.789489     0.093479     0.584185    Uiso  ? N
   N5         1.0     0.534427     0.216993     0.345597    Uiso  ? N
   N6         1.0     0.434679     0.110262     0.081623    Uiso  ? N
   N7         1.0     0.227196     0.194901     0.831132    Uiso  ? N
   N8         1.0     0.108793     0.097091     0.597127    Uiso  ? N
   N9         1.0     0.889247     0.224121     0.328598    Uiso  ? N
   N10        1.0     0.775557     0.095441     0.122753    Uiso  ? N
   N11        1.0     0.539222     0.214208     0.838289    Uiso  ? N
   N12        1.0     0.432240     0.089569     0.581839    Uiso  ? N
   N13        1.0     0.226141     0.528218     0.342642    Uiso  ? N
   N14        1.0     0.111956     0.426979     0.092980    Uiso  ? N
   N15        1.0     0.879152     0.535508     0.826665    Uiso  ? N
   N16        1.0     0.777989     0.425751     0.588479    Uiso  ? N
   N17        1.0     0.559986     0.538303     0.351720    Uiso  ? N
   N18        1.0     0.438225     0.420484     0.085332    Uiso  ? N
   N19        1.0     0.232491     0.543757     0.832090    Uiso  ? N
   N20        1.0     0.111898     0.427656     0.593131    Uiso  ? N
   N21        1.0     0.903631     0.511332     0.339704    Uiso  ? N
   N22        1.0     0.793206     0.422630     0.077479    Uiso  ? N
   N23        1.0     0.557211     0.534293     0.832656    Uiso  ? N
   N24        1.0     0.433675     0.446808     0.583051    Uiso  ? N
   N25        1.0     0.231964     0.856651     0.352870    Uiso  ? N
   N26        1.0     0.113320     0.746501     0.139424    Uiso  ? N
   N27        1.0     0.904580     0.864653     0.901681    Uiso  ? N
   N28        1.0     0.774578     0.760161     0.584835    Uiso  ? N
   N29        1.0     0.532387     0.882679     0.347714    Uiso  ? N
   N30        1.0     0.449745     0.756513     0.067819    Uiso  ? N
   N31        1.0     0.223157     0.878122     0.833428    Uiso  ? N
   N32        1.0     0.103133     0.767344     0.638361    Uiso  ? N
   N33        1.0     0.914877     0.856873     0.385456    Uiso  ? N
   N34        1.0     0.791404     0.749555     0.132027    Uiso  ? N
   N35        1.0     0.540298     0.884156     0.829117    Uiso  ? N
   N36        1.0     0.445098     0.760004     0.592381    Uiso  ? N
