
#======================================================================
# CRYSTAL DATA
#----------------------------------------------------------------------
data_VESTA_phase_1

_chemical_name_common                  'Mg   Al   Hf   N                      '
_cell_length_a                         9.851735
_cell_length_b                         9.863066
_cell_length_c                         9.973415
_cell_angle_alpha                      89.927238
_cell_angle_beta                       89.388260
_cell_angle_gamma                      60.097595
_cell_volume                           840.032235
_space_group_name_H-M_alt              'P 1'
_space_group_IT_number                 1

loop_
_space_group_symop_operation_xyz
   'x, y, z'

loop_
   _atom_site_label
   _atom_site_occupancy
   _atom_site_fract_x
   _atom_site_fract_y
   _atom_site_fract_z
   _atom_site_adp_type
   _atom_site_U_iso_or_equiv
   _atom_site_type_symbol
   Mg1        1.0     0.117196     0.094580     0.368807    Uiso  ? Mg
   Mg2        1.0     0.567445     0.524846     0.121058    Uiso  ? Mg
   Mg3        1.0     0.211652     0.875041     0.087640    Uiso  ? Mg
   Mg4        1.0     0.772122     0.758416     0.881944    Uiso  ? Mg
   Mg5        1.0     0.551153     0.884033     0.113979    Uiso  ? Mg
   Al1        1.0     0.220513     0.212894     0.134180    Uiso  ? Al
   Al2        1.0     0.900053     0.204626     0.630273    Uiso  ? Al
   Al3        1.0     0.428350     0.094127     0.381170    Uiso  ? Al
   Al4        1.0     0.529751     0.218228     0.141186    Uiso  ? Al
   Al5        1.0     0.117926     0.090197     0.885549    Uiso  ? Al
   Al6        1.0     0.218734     0.190611     0.629728    Uiso  ? Al
   Al7        1.0     0.900204     0.222924     0.133373    Uiso  ? Al
   Al8        1.0     0.436897     0.093231     0.886647    Uiso  ? Al
   Al9        1.0     0.114817     0.419313     0.390059    Uiso  ? Al
   Al10       1.0     0.222028     0.538594     0.084377    Uiso  ? Al
   Al11       1.0     0.778425     0.430074     0.881726    Uiso  ? Al
   Al12       1.0     0.878374     0.541359     0.628523    Uiso  ? Al
   Al13       1.0     0.440504     0.445956     0.383067    Uiso  ? Al
   Al14       1.0     0.215332     0.550457     0.578619    Uiso  ? Al
   Al15       1.0     0.770226     0.431108     0.387709    Uiso  ? Al
   Al16       1.0     0.898682     0.527088     0.133406    Uiso  ? Al
   Al17       1.0     0.445507     0.434422     0.886776    Uiso  ? Al
   Al18       1.0     0.552445     0.549651     0.640552    Uiso  ? Al
   Al19       1.0     0.124890     0.747350     0.320340    Uiso  ? Al
   Al20       1.0     0.898922     0.863655     0.570789    Uiso  ? Al
   Al21       1.0     0.438068     0.759489     0.301092    Uiso  ? Al
   Al22       1.0     0.122251     0.768522     0.815258    Uiso  ? Al
   Al23       1.0     0.233345     0.864437     0.561154    Uiso  ? Al
   Al24       1.0     0.907819     0.847562     0.079903    Uiso  ? Al
   Al25       1.0     0.441410     0.762588     0.895018    Uiso  ? Al
   Al26       1.0     0.546725     0.866820     0.643007    Uiso  ? Al
   Hf1        1.0     0.776388     0.100684     0.891669    Uiso  ? Hf
   Hf2        1.0     0.781121     0.097448     0.347323    Uiso  ? Hf
   Hf3        1.0     0.547584     0.209199     0.616290    Uiso  ? Hf
   Hf4        1.0     0.111283     0.428561     0.858050    Uiso  ? Hf
   Hf5        1.0     0.769954     0.756324     0.352892    Uiso  ? Hf
   N1         1.0     0.226423     0.218282     0.323134    Uiso  ? N
   N2         1.0     0.105943     0.116182     0.077942    Uiso  ? N
   N3         1.0     0.898097     0.209541     0.825085    Uiso  ? N
   N4         1.0     0.789888     0.091320     0.579981    Uiso  ? N
   N5         1.0     0.533923     0.218735     0.341806    Uiso  ? N
   N6         1.0     0.430956     0.117083     0.072866    Uiso  ? N
   N7         1.0     0.229958     0.188914     0.820273    Uiso  ? N
   N8         1.0     0.110464     0.090632     0.579918    Uiso  ? N
   N9         1.0     0.884180     0.226154     0.321111    Uiso  ? N
   N10        1.0     0.774306     0.095991     0.109660    Uiso  ? N
   N11        1.0     0.539832     0.213127     0.826409    Uiso  ? N
   N12        1.0     0.433605     0.084404     0.574073    Uiso  ? N
   N13        1.0     0.218890     0.538356     0.378371    Uiso  ? N
   N14        1.0     0.110990     0.428414     0.073354    Uiso  ? N
   N15        1.0     0.877000     0.536212     0.816268    Uiso  ? N
   N16        1.0     0.775342     0.425371     0.579634    Uiso  ? N
   N17        1.0     0.560185     0.537169     0.331143    Uiso  ? N
   N18        1.0     0.439557     0.418802     0.077258    Uiso  ? N
   N19        1.0     0.230818     0.551533     0.854117    Uiso  ? N
   N20        1.0     0.109743     0.423598     0.593011    Uiso  ? N
   N21        1.0     0.901721     0.513759     0.330704    Uiso  ? N
   N22        1.0     0.797548     0.423014     0.067625    Uiso  ? N
   N23        1.0     0.560756     0.533502     0.836839    Uiso  ? N
   N24        1.0     0.439482     0.446588     0.579892    Uiso  ? N
   N25        1.0     0.231103     0.851705     0.364982    Uiso  ? N
   N26        1.0     0.110408     0.744465     0.134787    Uiso  ? N
   N27        1.0     0.909950     0.864002     0.884260    Uiso  ? N
   N28        1.0     0.772322     0.762331     0.580487    Uiso  ? N
   N29        1.0     0.532462     0.886668     0.326813    Uiso  ? N
   N30        1.0     0.445938     0.756988     0.095580    Uiso  ? N
   N31        1.0     0.221376     0.873597     0.871332    Uiso  ? N
   N32        1.0     0.108926     0.765927     0.623605    Uiso  ? N
   N33        1.0     0.911311     0.858024     0.374944    Uiso  ? N
   N34        1.0     0.794438     0.748264     0.116411    Uiso  ? N
   N35        1.0     0.542154     0.881773     0.838094    Uiso  ? N
   N36        1.0     0.444263     0.759542     0.605993    Uiso  ? N
