
#======================================================================
# CRYSTAL DATA
#----------------------------------------------------------------------
data_VESTA_phase_1

_chemical_name_common                  'Mg   Al   Hf   N '
_cell_length_a                         9.841782
_cell_length_b                         9.852214
_cell_length_c                         10.012978
_cell_angle_alpha                      89.871422
_cell_angle_beta                       89.349884
_cell_angle_gamma                      60.089005
_cell_volume                           841.509283
_space_group_name_H-M_alt              'P 1'
_space_group_IT_number                 1

loop_
_space_group_symop_operation_xyz
   'x, y, z'

loop_
   _atom_site_label
   _atom_site_occupancy
   _atom_site_fract_x
   _atom_site_fract_y
   _atom_site_fract_z
   _atom_site_adp_type
   _atom_site_U_iso_or_equiv
   _atom_site_type_symbol
   Mg1        1.0     0.117665     0.093882     0.368723    Uiso  ? Mg
   Mg2        1.0     0.567681     0.524694     0.122611    Uiso  ? Mg
   Mg3        1.0     0.211534     0.875507     0.087839    Uiso  ? Mg
   Mg4        1.0     0.771630     0.758672     0.883934    Uiso  ? Mg
   Mg5        1.0     0.550486     0.884667     0.115575    Uiso  ? Mg
   Al1        1.0     0.220009     0.214557     0.133332    Uiso  ? Al
   Al2        1.0     0.900057     0.203999     0.630455    Uiso  ? Al
   Al3        1.0     0.428217     0.094251     0.381453    Uiso  ? Al
   Al4        1.0     0.528763     0.219235     0.142031    Uiso  ? Al
   Al5        1.0     0.117540     0.090582     0.886376    Uiso  ? Al
   Al6        1.0     0.219129     0.189421     0.629989    Uiso  ? Al
   Al7        1.0     0.900218     0.223152     0.133960    Uiso  ? Al
   Al8        1.0     0.436942     0.093002     0.886931    Uiso  ? Al
   Al9        1.0     0.114866     0.418919     0.389537    Uiso  ? Al
   Al10       1.0     0.221646     0.542240     0.069991    Uiso  ? Al
   Al11       1.0     0.778277     0.430276     0.882119    Uiso  ? Al
   Al12       1.0     0.877632     0.541710     0.628709    Uiso  ? Al
   Al13       1.0     0.440577     0.445404     0.383181    Uiso  ? Al
   Al14       1.0     0.214523     0.551336     0.574237    Uiso  ? Al
   Al15       1.0     0.770787     0.430543     0.387933    Uiso  ? Al
   Al16       1.0     0.899695     0.526910     0.132637    Uiso  ? Al
   Al17       1.0     0.448390     0.433351     0.887128    Uiso  ? Al
   Al18       1.0     0.552389     0.549770     0.640214    Uiso  ? Al
   Al19       1.0     0.125633     0.745177     0.317794    Uiso  ? Al
   Al20       1.0     0.899453     0.862833     0.570363    Uiso  ? Al
   Al21       1.0     0.437805     0.759307     0.302103    Uiso  ? Al
   Al22       1.0     0.121611     0.769441     0.816974    Uiso  ? Al
   Al23       1.0     0.233120     0.863566     0.560938    Uiso  ? Al
   Al24       1.0     0.907115     0.848639     0.080921    Uiso  ? Al
   Al25       1.0     0.441627     0.762730     0.896097    Uiso  ? Al
   Al26       1.0     0.546823     0.866545     0.643048    Uiso  ? Al
   Hf1        1.0     0.775507     0.101716     0.893756    Uiso  ? Hf
   Hf2        1.0     0.781622     0.096755     0.347498    Uiso  ? Hf
   Hf3        1.0     0.547947     0.208854     0.616469    Uiso  ? Hf
   Hf4        1.0     0.110944     0.428449     0.855515    Uiso  ? Hf
   Hf5        1.0     0.770155     0.755811     0.352774    Uiso  ? Hf
   N1         1.0     0.226526     0.218292     0.322148    Uiso  ? N
   N2         1.0     0.105853     0.116669     0.077865    Uiso  ? N
   N3         1.0     0.897772     0.209513     0.824815    Uiso  ? N
   N4         1.0     0.790272     0.090788     0.578723    Uiso  ? N
   N5         1.0     0.533919     0.218674     0.341861    Uiso  ? N
   N6         1.0     0.431107     0.117325     0.072413    Uiso  ? N
   N7         1.0     0.230012     0.188382     0.819816    Uiso  ? N
   N8         1.0     0.110500     0.090066     0.579302    Uiso  ? N
   N9         1.0     0.884517     0.225825     0.320885    Uiso  ? N
   N10        1.0     0.774719     0.095584     0.110815    Uiso  ? N
   N11        1.0     0.539657     0.213265     0.825718    Uiso  ? N
   N12        1.0     0.433645     0.084352     0.573702    Uiso  ? N
   N13        1.0     0.218546     0.538319     0.380346    Uiso  ? N
   N14        1.0     0.110709     0.428660     0.069915    Uiso  ? N
   N15        1.0     0.876211     0.536878     0.815856    Uiso  ? N
   N16        1.0     0.775602     0.424993     0.579210    Uiso  ? N
   N17        1.0     0.560372     0.536801     0.331749    Uiso  ? N
   N18        1.0     0.441166     0.418504     0.076634    Uiso  ? N
   N19        1.0     0.229916     0.554302     0.865804    Uiso  ? N
   N20        1.0     0.110039     0.423633     0.594371    Uiso  ? N
   N21        1.0     0.902297     0.513148     0.329889    Uiso  ? N
   N22        1.0     0.797380     0.423218     0.067380    Uiso  ? N
   N23        1.0     0.560994     0.534173     0.835717    Uiso  ? N
   N24        1.0     0.438769     0.446753     0.580569    Uiso  ? N
   N25        1.0     0.230562     0.850443     0.365313    Uiso  ? N
   N26        1.0     0.110566     0.744038     0.133793    Uiso  ? N
   N27        1.0     0.908939     0.865183     0.885549    Uiso  ? N
   N28        1.0     0.772165     0.762052     0.579615    Uiso  ? N
   N29        1.0     0.532177     0.886718     0.327019    Uiso  ? N
   N30        1.0     0.446025     0.756951     0.095985    Uiso  ? N
   N31        1.0     0.221560     0.874020     0.871993    Uiso  ? N
   N32        1.0     0.109105     0.764336     0.626257    Uiso  ? N
   N33        1.0     0.912389     0.856732     0.375063    Uiso  ? N
   N34        1.0     0.793960     0.748651     0.116897    Uiso  ? N
   N35        1.0     0.542115     0.881663     0.837471    Uiso  ? N
   N36        1.0     0.444287     0.759574     0.604731    Uiso  ? N
