
#======================================================================
# CRYSTAL DATA
#----------------------------------------------------------------------
data_VESTA_phase_1

_chemical_name_common                  'Mg   Al   Hf   N                      '
_cell_length_a                         9.791522
_cell_length_b                         9.806325
_cell_length_c                         10.141233
_cell_angle_alpha                      89.829849
_cell_angle_beta                       89.530273
_cell_angle_gamma                      59.933456
_cell_volume                           842.696764
_space_group_name_H-M_alt              'P 1'
_space_group_IT_number                 1

loop_
_space_group_symop_operation_xyz
   'x, y, z'

loop_
   _atom_site_label
   _atom_site_occupancy
   _atom_site_fract_x
   _atom_site_fract_y
   _atom_site_fract_z
   _atom_site_adp_type
   _atom_site_U_iso_or_equiv
   _atom_site_type_symbol
   Mg1        1.0     0.116328     0.088230     0.318874    Uiso  ? Mg
   Mg2        1.0     0.556911     0.538868     0.067292    Uiso  ? Mg
   Mg3        1.0     0.223323     0.873262     0.064295    Uiso  ? Mg
   Mg4        1.0     0.779195     0.756133     0.810821    Uiso  ? Mg
   Mg5        1.0     0.552203     0.872494     0.100184    Uiso  ? Mg
   Al1        1.0     0.227510     0.201618     0.127027    Uiso  ? Al
   Al2        1.0     0.893615     0.207504     0.566086    Uiso  ? Al
   Al3        1.0     0.429747     0.096191     0.382696    Uiso  ? Al
   Al4        1.0     0.536011     0.220399     0.055893    Uiso  ? Al
   Al5        1.0     0.115446     0.081927     0.812526    Uiso  ? Al
   Al6        1.0     0.215606     0.204411     0.627187    Uiso  ? Al
   Al7        1.0     0.904500     0.220233     0.058503    Uiso  ? Al
   Al8        1.0     0.435356     0.085582     0.874326    Uiso  ? Al
   Al9        1.0     0.115446     0.430511     0.306186    Uiso  ? Al
   Al10       1.0     0.226595     0.545997     0.072134    Uiso  ? Al
   Al11       1.0     0.770579     0.435305     0.811159    Uiso  ? Al
   Al12       1.0     0.894910     0.529049     0.564763    Uiso  ? Al
   Al13       1.0     0.439034     0.433582     0.314636    Uiso  ? Al
   Al14       1.0     0.214046     0.546153     0.561601    Uiso  ? Al
   Al15       1.0     0.777694     0.425320     0.314639    Uiso  ? Al
   Al16       1.0     0.881533     0.540313     0.070807    Uiso  ? Al
   Al17       1.0     0.440247     0.448037     0.812465    Uiso  ? Al
   Al18       1.0     0.554312     0.546185     0.560871    Uiso  ? Al
   Al19       1.0     0.122700     0.757134     0.314433    Uiso  ? Al
   Al20       1.0     0.900830     0.866719     0.569174    Uiso  ? Al
   Al21       1.0     0.436292     0.758568     0.310059    Uiso  ? Al
   Al22       1.0     0.123040     0.759191     0.812555    Uiso  ? Al
   Al23       1.0     0.224913     0.866601     0.563287    Uiso  ? Al
   Al24       1.0     0.904607     0.847888     0.063428    Uiso  ? Al
   Al25       1.0     0.441009     0.759371     0.810524    Uiso  ? Al
   Al26       1.0     0.548965     0.870753     0.614921    Uiso  ? Al
   Hf1        1.0     0.785813     0.089376     0.844596    Uiso  ? Hf
   Hf2        1.0     0.776325     0.101677     0.299673    Uiso  ? Hf
   Hf3        1.0     0.551822     0.210227     0.590891    Uiso  ? Hf
   Hf4        1.0     0.111885     0.429744     0.846659    Uiso  ? Hf
   Hf5        1.0     0.776319     0.758173     0.340499    Uiso  ? Hf
   N1         1.0     0.233259     0.215121     0.316832    Uiso  ? N
   N2         1.0     0.106285     0.105940     0.110941    Uiso  ? N
   N3         1.0     0.898885     0.217600     0.868583    Uiso  ? N
   N4         1.0     0.796530     0.083394     0.629821    Uiso  ? N
   N5         1.0     0.547950     0.212192     0.378098    Uiso  ? N
   N6         1.0     0.433713     0.106864     0.058274    Uiso  ? N
   N7         1.0     0.227440     0.190011     0.818937    Uiso  ? N
   N8         1.0     0.106959     0.090518     0.616277    Uiso  ? N
   N9         1.0     0.877179     0.217006     0.380876    Uiso  ? N
   N10        1.0     0.771224     0.098474     0.084559    Uiso  ? N
   N11        1.0     0.535111     0.221034     0.844548    Uiso  ? N
   N12        1.0     0.427002     0.092597     0.574267    Uiso  ? N
   N13        1.0     0.218824     0.539341     0.372556    Uiso  ? N
   N14        1.0     0.109935     0.434172     0.100520    Uiso  ? N
   N15        1.0     0.874514     0.534553     0.881482    Uiso  ? N
   N16        1.0     0.778093     0.427690     0.621121    Uiso  ? N
   N17        1.0     0.558044     0.534060     0.372769    Uiso  ? N
   N18        1.0     0.437449     0.418887     0.129043    Uiso  ? N
   N19        1.0     0.235205     0.551050     0.880693    Uiso  ? N
   N20        1.0     0.108803     0.434143     0.627203    Uiso  ? N
   N21        1.0     0.904008     0.513800     0.375413    Uiso  ? N
   N22        1.0     0.790902     0.421273     0.130078    Uiso  ? N
   N23        1.0     0.557333     0.539929     0.859056    Uiso  ? N
   N24        1.0     0.429288     0.451358     0.621834    Uiso  ? N
   N25        1.0     0.228364     0.854956     0.379408    Uiso  ? N
   N26        1.0     0.106170     0.754559     0.131274    Uiso  ? N
   N27        1.0     0.913277     0.849876     0.876756    Uiso  ? N
   N28        1.0     0.781663     0.758330     0.590070    Uiso  ? N
   N29        1.0     0.537333     0.879778     0.356642    Uiso  ? N
   N30        1.0     0.441559     0.756490     0.130640    Uiso  ? N
   N31        1.0     0.223484     0.870236     0.856005    Uiso  ? N
   N32        1.0     0.112077     0.757496     0.623616    Uiso  ? N
   N33        1.0     0.903610     0.876881     0.379229    Uiso  ? N
   N34        1.0     0.794112     0.752567     0.130424    Uiso  ? N
   N35        1.0     0.543211     0.881631     0.813042    Uiso  ? N
   N36        1.0     0.441307     0.756427     0.617565    Uiso  ? N
