
#======================================================================
# CRYSTAL DATA
#----------------------------------------------------------------------
data_VESTA_phase_1

_chemical_name_common                  'Mg   Al   Hf   N                      '
_cell_length_a                         9.841891
_cell_length_b                         9.853387
_cell_length_c                         10.010690
_cell_angle_alpha                      89.899422
_cell_angle_beta                       89.421082
_cell_angle_gamma                      60.105888
_cell_volume                           841.580876
_space_group_name_H-M_alt              'P 1'
_space_group_IT_number                 1

loop_
_space_group_symop_operation_xyz
   'x, y, z'

loop_
   _atom_site_label
   _atom_site_occupancy
   _atom_site_fract_x
   _atom_site_fract_y
   _atom_site_fract_z
   _atom_site_adp_type
   _atom_site_U_iso_or_equiv
   _atom_site_type_symbol
   Mg1        1.0     0.119245     0.091285     0.370261    Uiso  ? Mg
   Mg2        1.0     0.567688     0.525521     0.120556    Uiso  ? Mg
   Mg3        1.0     0.213286     0.873906     0.081140    Uiso  ? Mg
   Mg4        1.0     0.772298     0.758101     0.885919    Uiso  ? Mg
   Mg5        1.0     0.549699     0.883745     0.112798    Uiso  ? Mg
   Al1        1.0     0.219962     0.213762     0.133456    Uiso  ? Al
   Al2        1.0     0.899816     0.204072     0.630570    Uiso  ? Al
   Al3        1.0     0.428301     0.093670     0.380963    Uiso  ? Al
   Al4        1.0     0.528615     0.219205     0.142646    Uiso  ? Al
   Al5        1.0     0.116185     0.092143     0.885058    Uiso  ? Al
   Al6        1.0     0.219030     0.190073     0.630002    Uiso  ? Al
   Al7        1.0     0.901101     0.222374     0.134222    Uiso  ? Al
   Al8        1.0     0.436801     0.094428     0.887416    Uiso  ? Al
   Al9        1.0     0.114909     0.418490     0.388892    Uiso  ? Al
   Al10       1.0     0.221612     0.542788     0.071527    Uiso  ? Al
   Al11       1.0     0.778853     0.429714     0.882521    Uiso  ? Al
   Al12       1.0     0.877888     0.541720     0.628506    Uiso  ? Al
   Al13       1.0     0.440421     0.445998     0.382360    Uiso  ? Al
   Al14       1.0     0.214171     0.551308     0.573277    Uiso  ? Al
   Al15       1.0     0.771225     0.430305     0.387284    Uiso  ? Al
   Al16       1.0     0.899979     0.526594     0.132939    Uiso  ? Al
   Al17       1.0     0.447987     0.433155     0.888189    Uiso  ? Al
   Al18       1.0     0.553959     0.547145     0.640700    Uiso  ? Al
   Al19       1.0     0.126735     0.746041     0.318679    Uiso  ? Al
   Al20       1.0     0.899036     0.862888     0.569806    Uiso  ? Al
   Al21       1.0     0.436734     0.759591     0.296769    Uiso  ? Al
   Al22       1.0     0.119371     0.769477     0.817003    Uiso  ? Al
   Al23       1.0     0.233470     0.863152     0.565641    Uiso  ? Al
   Al24       1.0     0.907142     0.849514     0.082021    Uiso  ? Al
   Al25       1.0     0.440156     0.763847     0.879053    Uiso  ? Al
   Al26       1.0     0.548864     0.867711     0.643540    Uiso  ? Al
   Hf1        1.0     0.774787     0.102173     0.894038    Uiso  ? Hf
   Hf2        1.0     0.781498     0.097149     0.347690    Uiso  ? Hf
   Hf3        1.0     0.547423     0.209405     0.616137    Uiso  ? Hf
   Hf4        1.0     0.110880     0.428912     0.856427    Uiso  ? Hf
   Hf5        1.0     0.770083     0.756022     0.351435    Uiso  ? Hf
   N1         1.0     0.226219     0.217428     0.322346    Uiso  ? N
   N2         1.0     0.106109     0.115925     0.076756    Uiso  ? N
   N3         1.0     0.896976     0.209913     0.824729    Uiso  ? N
   N4         1.0     0.789810     0.090905     0.578951    Uiso  ? N
   N5         1.0     0.533737     0.218691     0.342194    Uiso  ? N
   N6         1.0     0.430947     0.117444     0.072968    Uiso  ? N
   N7         1.0     0.229981     0.189135     0.819890    Uiso  ? N
   N8         1.0     0.110489     0.090040     0.580843    Uiso  ? N
   N9         1.0     0.885898     0.224881     0.321263    Uiso  ? N
   N10        1.0     0.774416     0.095869     0.111194    Uiso  ? N
   N11        1.0     0.538904     0.214172     0.825640    Uiso  ? N
   N12        1.0     0.433622     0.084260     0.573349    Uiso  ? N
   N13        1.0     0.218303     0.538201     0.379429    Uiso  ? N
   N14        1.0     0.110923     0.428677     0.070727    Uiso  ? N
   N15        1.0     0.876153     0.536985     0.815857    Uiso  ? N
   N16        1.0     0.775841     0.424930     0.578743    Uiso  ? N
   N17        1.0     0.560545     0.537486     0.332000    Uiso  ? N
   N18        1.0     0.441039     0.418448     0.077628    Uiso  ? N
   N19        1.0     0.229515     0.554986     0.867085    Uiso  ? N
   N20        1.0     0.110060     0.423655     0.593907    Uiso  ? N
   N21        1.0     0.902289     0.513231     0.329789    Uiso  ? N
   N22        1.0     0.798173     0.422562     0.067736    Uiso  ? N
   N23        1.0     0.562624     0.530777     0.835752    Uiso  ? N
   N24        1.0     0.438434     0.447248     0.579766    Uiso  ? N
   N25        1.0     0.234226     0.847440     0.370769    Uiso  ? N
   N26        1.0     0.111058     0.745391     0.134409    Uiso  ? N
   N27        1.0     0.908193     0.865682     0.886532    Uiso  ? N
   N28        1.0     0.772080     0.761862     0.578754    Uiso  ? N
   N29        1.0     0.531932     0.885807     0.327334    Uiso  ? N
   N30        1.0     0.445218     0.756855     0.095045    Uiso  ? N
   N31        1.0     0.218715     0.875934     0.868666    Uiso  ? N
   N32        1.0     0.108078     0.763617     0.626668    Uiso  ? N
   N33        1.0     0.912581     0.857200     0.374647    Uiso  ? N
   N34        1.0     0.794233     0.748643     0.116973    Uiso  ? N
   N35        1.0     0.544144     0.883951     0.837692    Uiso  ? N
   N36        1.0     0.441688     0.760760     0.622828    Uiso  ? N
