
#======================================================================
# CRYSTAL DATA
#----------------------------------------------------------------------
data_VESTA_phase_1

_chemical_name_common                  'Mg   Al   Hf   N '
_cell_length_a                         9.798894
_cell_length_b                         9.811711
_cell_length_c                         10.207118
_cell_angle_alpha                      89.819427
_cell_angle_beta                       89.633080
_cell_angle_gamma                      59.943798
_cell_volume                           849.376906
_space_group_name_H-M_alt              'P 1'
_space_group_IT_number                 1

loop_
_space_group_symop_operation_xyz
   'x, y, z'

loop_
   _atom_site_label
   _atom_site_occupancy
   _atom_site_fract_x
   _atom_site_fract_y
   _atom_site_fract_z
   _atom_site_adp_type
   _atom_site_U_iso_or_equiv
   _atom_site_type_symbol
   Mg1        1.0     0.122234     0.090229     0.375273    Uiso  ? Mg
   Mg2        1.0     0.552223     0.538032     0.075098    Uiso  ? Mg
   Mg3        1.0     0.224020     0.867088     0.074228    Uiso  ? Mg
   Mg4        1.0     0.767500     0.759823     0.889840    Uiso  ? Mg
   Mg5        1.0     0.543454     0.879562     0.123335    Uiso  ? Mg
   Al1        1.0     0.221516     0.210966     0.132747    Uiso  ? Al
   Al2        1.0     0.898922     0.205445     0.633945    Uiso  ? Al
   Al3        1.0     0.428406     0.092903     0.385849    Uiso  ? Al
   Al4        1.0     0.534658     0.209025     0.144726    Uiso  ? Al
   Al5        1.0     0.115803     0.092648     0.884861    Uiso  ? Al
   Al6        1.0     0.216745     0.194868     0.633904    Uiso  ? Al
   Al7        1.0     0.901538     0.221867     0.133680    Uiso  ? Al
   Al8        1.0     0.439335     0.091820     0.884150    Uiso  ? Al
   Al9        1.0     0.117599     0.416776     0.389210    Uiso  ? Al
   Al10       1.0     0.228530     0.541893     0.073707    Uiso  ? Al
   Al11       1.0     0.778027     0.432381     0.882680    Uiso  ? Al
   Al12       1.0     0.881372     0.540461     0.631278    Uiso  ? Al
   Al13       1.0     0.433728     0.442175     0.323015    Uiso  ? Al
   Al14       1.0     0.215900     0.550625     0.570537    Uiso  ? Al
   Al15       1.0     0.782263     0.423491     0.387254    Uiso  ? Al
   Al16       1.0     0.898372     0.527119     0.134487    Uiso  ? Al
   Al17       1.0     0.441016     0.447975     0.814504    Uiso  ? Al
   Al18       1.0     0.549922     0.550216     0.568636    Uiso  ? Al
   Al19       1.0     0.128878     0.747078     0.319331    Uiso  ? Al
   Al20       1.0     0.900456     0.861530     0.568768    Uiso  ? Al
   Al21       1.0     0.435378     0.756573     0.313064    Uiso  ? Al
   Al22       1.0     0.115451     0.769885     0.820868    Uiso  ? Al
   Al23       1.0     0.225306     0.866992     0.571379    Uiso  ? Al
   Al24       1.0     0.906238     0.850882     0.083663    Uiso  ? Al
   Al25       1.0     0.439045     0.761357     0.820168    Uiso  ? Al
   Al26       1.0     0.554507     0.869987     0.635203    Uiso  ? Al
   Hf1        1.0     0.770059     0.107296     0.898358    Uiso  ? Hf
   Hf2        1.0     0.785844     0.095584     0.351763    Uiso  ? Hf
   Hf3        1.0     0.549152     0.208484     0.608886    Uiso  ? Hf
   Hf4        1.0     0.111658     0.429168     0.866332    Uiso  ? Hf
   Hf5        1.0     0.773386     0.754909     0.351187    Uiso  ? Hf
   N1         1.0     0.228818     0.215712     0.318847    Uiso  ? N
   N2         1.0     0.106680     0.114012     0.072067    Uiso  ? N
   N3         1.0     0.894388     0.211174     0.824205    Uiso  ? N
   N4         1.0     0.793233     0.090925     0.575034    Uiso  ? N
   N5         1.0     0.538815     0.210414     0.352712    Uiso  ? N
   N6         1.0     0.434332     0.113270     0.068371    Uiso  ? N
   N7         1.0     0.228951     0.191150     0.820373    Uiso  ? N
   N8         1.0     0.109721     0.093019     0.584049    Uiso  ? N
   N9         1.0     0.890675     0.222674     0.316968    Uiso  ? N
   N10        1.0     0.771609     0.097558     0.112730    Uiso  ? N
   N11        1.0     0.539893     0.212914     0.819867    Uiso  ? N
   N12        1.0     0.430261     0.086822     0.574054    Uiso  ? N
   N13        1.0     0.222526     0.537402     0.384973    Uiso  ? N
   N14        1.0     0.111303     0.429291     0.072802    Uiso  ? N
   N15        1.0     0.878226     0.537783     0.815704    Uiso  ? N
   N16        1.0     0.782213     0.423114     0.576289    Uiso  ? N
   N17        1.0     0.555225     0.536451     0.379319    Uiso  ? N
   N18        1.0     0.432837     0.424324     0.138782    Uiso  ? N
   N19        1.0     0.233755     0.554330     0.878846    Uiso  ? N
   N20        1.0     0.110647     0.423544     0.589977    Uiso  ? N
   N21        1.0     0.904949     0.511529     0.327042    Uiso  ? N
   N22        1.0     0.797043     0.423410     0.067673    Uiso  ? N
   N23        1.0     0.557952     0.538741     0.862601    Uiso  ? N
   N24        1.0     0.429960     0.452878     0.624299    Uiso  ? N
   N25        1.0     0.231595     0.847056     0.385684    Uiso  ? N
   N26        1.0     0.111362     0.747142     0.137481    Uiso  ? N
   N27        1.0     0.905725     0.868273     0.892031    Uiso  ? N
   N28        1.0     0.774833     0.759631     0.575883    Uiso  ? N
   N29        1.0     0.534252     0.883430     0.340969    Uiso  ? N
   N30        1.0     0.440234     0.754304     0.135028    Uiso  ? N
   N31        1.0     0.222540     0.873866     0.864172    Uiso  ? N
   N32        1.0     0.106419     0.761641     0.633461    Uiso  ? N
   N33        1.0     0.915982     0.855132     0.377344    Uiso  ? N
   N34        1.0     0.790948     0.751278     0.119568    Uiso  ? N
   N35        1.0     0.543710     0.883942     0.825619    Uiso  ? N
   N36        1.0     0.442309     0.759129     0.627515    Uiso  ? N
