
#======================================================================
# CRYSTAL DATA
#----------------------------------------------------------------------
data_VESTA_phase_1

_chemical_name_common                  'Mg   Al   Hf   N                      '
_cell_length_a                         9.773308
_cell_length_b                         9.779694
_cell_length_c                         10.197525
_cell_angle_alpha                      90.171631
_cell_angle_beta                       89.599464
_cell_angle_gamma                      60.148556
_cell_volume                           845.313280
_space_group_name_H-M_alt              'P 1'
_space_group_IT_number                 1

loop_
_space_group_symop_operation_xyz
   'x, y, z'

loop_
   _atom_site_label
   _atom_site_occupancy
   _atom_site_fract_x
   _atom_site_fract_y
   _atom_site_fract_z
   _atom_site_adp_type
   _atom_site_U_iso_or_equiv
   _atom_site_type_symbol
   Mg1        1.0     0.118092     0.093444     0.393160    Uiso  ? Mg
   Mg2        1.0     0.558152     0.541102     0.146248    Uiso  ? Mg
   Mg3        1.0     0.225910     0.869147     0.098165    Uiso  ? Mg
   Mg4        1.0     0.763165     0.759430     0.905190    Uiso  ? Mg
   Mg5        1.0     0.540998     0.878110     0.143452    Uiso  ? Mg
   Al1        1.0     0.222343     0.206690     0.149204    Uiso  ? Al
   Al2        1.0     0.896389     0.207504     0.648116    Uiso  ? Al
   Al3        1.0     0.428774     0.095767     0.395684    Uiso  ? Al
   Al4        1.0     0.531855     0.216926     0.152505    Uiso  ? Al
   Al5        1.0     0.115791     0.092431     0.894465    Uiso  ? Al
   Al6        1.0     0.216508     0.199988     0.646349    Uiso  ? Al
   Al7        1.0     0.900626     0.220269     0.146655    Uiso  ? Al
   Al8        1.0     0.437622     0.090239     0.900573    Uiso  ? Al
   Al9        1.0     0.119575     0.418977     0.401181    Uiso  ? Al
   Al10       1.0     0.227340     0.529885     0.154716    Uiso  ? Al
   Al11       1.0     0.773073     0.433818     0.896798    Uiso  ? Al
   Al12       1.0     0.883095     0.541208     0.643884    Uiso  ? Al
   Al13       1.0     0.437697     0.442197     0.397281    Uiso  ? Al
   Al14       1.0     0.218743     0.544026     0.642858    Uiso  ? Al
   Al15       1.0     0.775858     0.426996     0.403104    Uiso  ? Al
   Al16       1.0     0.895676     0.526313     0.151187    Uiso  ? Al
   Al17       1.0     0.439676     0.441599     0.904519    Uiso  ? Al
   Al18       1.0     0.556207     0.543551     0.648914    Uiso  ? Al
   Al19       1.0     0.126722     0.753152     0.334018    Uiso  ? Al
   Al20       1.0     0.897546     0.863166     0.579032    Uiso  ? Al
   Al21       1.0     0.445411     0.753980     0.405607    Uiso  ? Al
   Al22       1.0     0.112913     0.772477     0.829483    Uiso  ? Al
   Al23       1.0     0.219536     0.872371     0.595632    Uiso  ? Al
   Al24       1.0     0.909683     0.847971     0.096901    Uiso  ? Al
   Al25       1.0     0.443303     0.763999     0.894230    Uiso  ? Al
   Al26       1.0     0.552237     0.868886     0.648946    Uiso  ? Al
   Hf1        1.0     0.774122     0.102292     0.913212    Uiso  ? Hf
   Hf2        1.0     0.780850     0.098637     0.362519    Uiso  ? Hf
   Hf3        1.0     0.548460     0.209456     0.636844    Uiso  ? Hf
   Hf4        1.0     0.109659     0.431472     0.891668    Uiso  ? Hf
   Hf5        1.0     0.773782     0.754251     0.364016    Uiso  ? Hf
   N1         1.0     0.226853     0.214052     0.334249    Uiso  ? N
   N2         1.0     0.106328     0.113126     0.083397    Uiso  ? N
   N3         1.0     0.893085     0.211258     0.838266    Uiso  ? N
   N4         1.0     0.788529     0.093411     0.587784    Uiso  ? N
   N5         1.0     0.534150     0.216721     0.348301    Uiso  ? N
   N6         1.0     0.434089     0.111015     0.084789    Uiso  ? N
   N7         1.0     0.227456     0.196264     0.833965    Uiso  ? N
   N8         1.0     0.107366     0.098294     0.599587    Uiso  ? N
   N9         1.0     0.888476     0.224037     0.331022    Uiso  ? N
   N10        1.0     0.775186     0.096225     0.125123    Uiso  ? N
   N11        1.0     0.539806     0.213975     0.842089    Uiso  ? N
   N12        1.0     0.432222     0.088945     0.584838    Uiso  ? N
   N13        1.0     0.226108     0.528939     0.346768    Uiso  ? N
   N14        1.0     0.111868     0.429653     0.096098    Uiso  ? N
   N15        1.0     0.879398     0.535595     0.829775    Uiso  ? N
   N16        1.0     0.778096     0.425097     0.591372    Uiso  ? N
   N17        1.0     0.560668     0.536709     0.353672    Uiso  ? N
   N18        1.0     0.436960     0.421783     0.088771    Uiso  ? N
   N19        1.0     0.232972     0.544568     0.834296    Uiso  ? N
   N20        1.0     0.111766     0.427187     0.596201    Uiso  ? N
   N21        1.0     0.903736     0.511404     0.342935    Uiso  ? N
   N22        1.0     0.793610     0.423189     0.080611    Uiso  ? N
   N23        1.0     0.558422     0.533128     0.836557    Uiso  ? N
   N24        1.0     0.433770     0.446581     0.586305    Uiso  ? N
   N25        1.0     0.227879     0.852456     0.398789    Uiso  ? N
   N26        1.0     0.113798     0.750643     0.149230    Uiso  ? N
   N27        1.0     0.907263     0.862788     0.905582    Uiso  ? N
   N28        1.0     0.773882     0.759927     0.587975    Uiso  ? N
   N29        1.0     0.531414     0.882251     0.349899    Uiso  ? N
   N30        1.0     0.454918     0.753359     0.072005    Uiso  ? N
   N31        1.0     0.221864     0.876782     0.858243    Uiso  ? N
   N32        1.0     0.101447     0.766982     0.640747    Uiso  ? N
   N33        1.0     0.913737     0.857479     0.388799    Uiso  ? N
   N34        1.0     0.792431     0.750235     0.136083    Uiso  ? N
   N35        1.0     0.541584     0.884538     0.833473    Uiso  ? N
   N36        1.0     0.450436     0.756529     0.597244    Uiso  ? N
