
#======================================================================
# CRYSTAL DATA
#----------------------------------------------------------------------
data_VESTA_phase_1

_chemical_name_common                  'Mg   Al   Hf   N                      '
_cell_length_a                         9.809876
_cell_length_b                         9.827867
_cell_length_c                         10.151588
_cell_angle_alpha                      89.835243
_cell_angle_beta                       89.698967
_cell_angle_gamma                      60.040840
_cell_volume                           847.929977
_space_group_name_H-M_alt              'P 1'
_space_group_IT_number                 1

loop_
_space_group_symop_operation_xyz
   'x, y, z'

loop_
   _atom_site_label
   _atom_site_occupancy
   _atom_site_fract_x
   _atom_site_fract_y
   _atom_site_fract_z
   _atom_site_adp_type
   _atom_site_U_iso_or_equiv
   _atom_site_type_symbol
   Mg1        1.0     0.120413     0.090464     0.374013    Uiso  ? Mg
   Mg2        1.0     0.552383     0.539218     0.076183    Uiso  ? Mg
   Mg3        1.0     0.223800     0.867763     0.075927    Uiso  ? Mg
   Mg4        1.0     0.768161     0.757434     0.888879    Uiso  ? Mg
   Mg5        1.0     0.544402     0.880163     0.122758    Uiso  ? Mg
   Al1        1.0     0.220694     0.211911     0.133495    Uiso  ? Al
   Al2        1.0     0.899681     0.205091     0.634224    Uiso  ? Al
   Al3        1.0     0.428334     0.093516     0.387124    Uiso  ? Al
   Al4        1.0     0.534343     0.212506     0.126643    Uiso  ? Al
   Al5        1.0     0.116643     0.092367     0.885773    Uiso  ? Al
   Al6        1.0     0.217051     0.193790     0.633716    Uiso  ? Al
   Al7        1.0     0.900466     0.222986     0.131372    Uiso  ? Al
   Al8        1.0     0.438555     0.091560     0.882252    Uiso  ? Al
   Al9        1.0     0.117534     0.416916     0.389913    Uiso  ? Al
   Al10       1.0     0.227097     0.543129     0.074502    Uiso  ? Al
   Al11       1.0     0.778024     0.432293     0.883282    Uiso  ? Al
   Al12       1.0     0.881730     0.539311     0.631131    Uiso  ? Al
   Al13       1.0     0.433824     0.440879     0.324711    Uiso  ? Al
   Al14       1.0     0.216646     0.550659     0.570987    Uiso  ? Al
   Al15       1.0     0.781025     0.423295     0.386600    Uiso  ? Al
   Al16       1.0     0.898762     0.527599     0.134909    Uiso  ? Al
   Al17       1.0     0.441848     0.447334     0.815051    Uiso  ? Al
   Al18       1.0     0.549866     0.550364     0.569382    Uiso  ? Al
   Al19       1.0     0.127691     0.748537     0.320647    Uiso  ? Al
   Al20       1.0     0.900448     0.862301     0.571934    Uiso  ? Al
   Al21       1.0     0.435962     0.757152     0.313218    Uiso  ? Al
   Al22       1.0     0.118400     0.767613     0.820801    Uiso  ? Al
   Al23       1.0     0.225803     0.867097     0.571372    Uiso  ? Al
   Al24       1.0     0.906723     0.849422     0.080287    Uiso  ? Al
   Al25       1.0     0.439418     0.761113     0.821578    Uiso  ? Al
   Al26       1.0     0.555057     0.869291     0.635579    Uiso  ? Al
   Hf1        1.0     0.773768     0.101897     0.885937    Uiso  ? Hf
   Hf2        1.0     0.781398     0.095544     0.343820    Uiso  ? Hf
   Hf3        1.0     0.548296     0.209640     0.604526    Uiso  ? Hf
   Hf4        1.0     0.112613     0.428832     0.864922    Uiso  ? Hf
   Hf5        1.0     0.774404     0.754590     0.352808    Uiso  ? Hf
   N1         1.0     0.228813     0.215872     0.320262    Uiso  ? N
   N2         1.0     0.106354     0.114138     0.073897    Uiso  ? N
   N3         1.0     0.896505     0.212070     0.825748    Uiso  ? N
   N4         1.0     0.793760     0.087992     0.587719    Uiso  ? N
   N5         1.0     0.537729     0.214683     0.366621    Uiso  ? N
   N6         1.0     0.431626     0.113273     0.067477    Uiso  ? N
   N7         1.0     0.228391     0.190920     0.820798    Uiso  ? N
   N8         1.0     0.109477     0.092810     0.583496    Uiso  ? N
   N9         1.0     0.887547     0.221953     0.316652    Uiso  ? N
   N10        1.0     0.768496     0.098875     0.106853    Uiso  ? N
   N11        1.0     0.537687     0.214746     0.822516    Uiso  ? N
   N12        1.0     0.430438     0.085148     0.576400    Uiso  ? N
   N13        1.0     0.221288     0.538456     0.384375    Uiso  ? N
   N14        1.0     0.111255     0.429596     0.073200    Uiso  ? N
   N15        1.0     0.879133     0.536234     0.816224    Uiso  ? N
   N16        1.0     0.782192     0.422110     0.576411    Uiso  ? N
   N17        1.0     0.554599     0.537633     0.378712    Uiso  ? N
   N18        1.0     0.432239     0.425015     0.139194    Uiso  ? N
   N19        1.0     0.235010     0.553734     0.879557    Uiso  ? N
   N20        1.0     0.111595     0.423064     0.591431    Uiso  ? N
   N21        1.0     0.904861     0.511158     0.328207    Uiso  ? N
   N22        1.0     0.796425     0.424940     0.069047    Uiso  ? N
   N23        1.0     0.558400     0.538766     0.862981    Uiso  ? N
   N24        1.0     0.430020     0.453600     0.624757    Uiso  ? N
   N25        1.0     0.232103     0.847750     0.384728    Uiso  ? N
   N26        1.0     0.110121     0.748434     0.137732    Uiso  ? N
   N27        1.0     0.908512     0.863009     0.889266    Uiso  ? N
   N28        1.0     0.775904     0.758297     0.577200    Uiso  ? N
   N29        1.0     0.535954     0.884482     0.341177    Uiso  ? N
   N30        1.0     0.440697     0.755575     0.134212    Uiso  ? N
   N31        1.0     0.222779     0.874066     0.864827    Uiso  ? N
   N32        1.0     0.108188     0.760759     0.632946    Uiso  ? N
   N33        1.0     0.914492     0.858169     0.379421    Uiso  ? N
   N34        1.0     0.791509     0.751175     0.119417    Uiso  ? N
   N35        1.0     0.544396     0.883258     0.826813    Uiso  ? N
   N36        1.0     0.442606     0.759046     0.627697    Uiso  ? N
