
#======================================================================
# CRYSTAL DATA
#----------------------------------------------------------------------
data_VESTA_phase_1

_chemical_name_common                  'Mg   Al   Hf   N                      '
_cell_length_a                         9.848186
_cell_length_b                         9.864079
_cell_length_c                         9.961447
_cell_angle_alpha                      89.957634
_cell_angle_beta                       89.418335
_cell_angle_gamma                      60.117989
_cell_volume                           838.983050
_space_group_name_H-M_alt              'P 1'
_space_group_IT_number                 1

loop_
_space_group_symop_operation_xyz
   'x, y, z'

loop_
   _atom_site_label
   _atom_site_occupancy
   _atom_site_fract_x
   _atom_site_fract_y
   _atom_site_fract_z
   _atom_site_adp_type
   _atom_site_U_iso_or_equiv
   _atom_site_type_symbol
   Mg1        1.0     0.117025     0.095080     0.368961    Uiso  ? Mg
   Mg2        1.0     0.567011     0.524850     0.120189    Uiso  ? Mg
   Mg3        1.0     0.211769     0.874702     0.087299    Uiso  ? Mg
   Mg4        1.0     0.772237     0.758102     0.881396    Uiso  ? Mg
   Mg5        1.0     0.551299     0.883996     0.113662    Uiso  ? Mg
   Al1        1.0     0.220897     0.211778     0.134529    Uiso  ? Al
   Al2        1.0     0.900029     0.204771     0.630170    Uiso  ? Al
   Al3        1.0     0.428416     0.094135     0.380951    Uiso  ? Al
   Al4        1.0     0.530397     0.217848     0.140285    Uiso  ? Al
   Al5        1.0     0.117894     0.090248     0.885109    Uiso  ? Al
   Al6        1.0     0.218365     0.191602     0.629632    Uiso  ? Al
   Al7        1.0     0.900122     0.222884     0.133151    Uiso  ? Al
   Al8        1.0     0.436846     0.093425     0.886302    Uiso  ? Al
   Al9        1.0     0.115483     0.419588     0.390780    Uiso  ? Al
   Al10       1.0     0.223525     0.532500     0.119842    Uiso  ? Al
   Al11       1.0     0.778475     0.429941     0.881376    Uiso  ? Al
   Al12       1.0     0.879200     0.541007     0.628355    Uiso  ? Al
   Al13       1.0     0.440172     0.446384     0.383336    Uiso  ? Al
   Al14       1.0     0.217822     0.548142     0.599091    Uiso  ? Al
   Al15       1.0     0.770159     0.431257     0.387564    Uiso  ? Al
   Al16       1.0     0.897936     0.527358     0.133829    Uiso  ? Al
   Al17       1.0     0.440662     0.436880     0.886537    Uiso  ? Al
   Al18       1.0     0.552448     0.549555     0.640469    Uiso  ? Al
   Al19       1.0     0.123448     0.750686     0.322168    Uiso  ? Al
   Al20       1.0     0.898312     0.864122     0.570363    Uiso  ? Al
   Al21       1.0     0.438342     0.759398     0.300729    Uiso  ? Al
   Al22       1.0     0.121909     0.769012     0.813537    Uiso  ? Al
   Al23       1.0     0.233303     0.864977     0.560825    Uiso  ? Al
   Al24       1.0     0.908627     0.846579     0.079145    Uiso  ? Al
   Al25       1.0     0.441505     0.762417     0.894775    Uiso  ? Al
   Al26       1.0     0.546698     0.866819     0.642854    Uiso  ? Al
   Hf1        1.0     0.776426     0.100435     0.890969    Uiso  ? Hf
   Hf2        1.0     0.780742     0.097810     0.347107    Uiso  ? Hf
   Hf3        1.0     0.547556     0.209251     0.616175    Uiso  ? Hf
   Hf4        1.0     0.112389     0.429506     0.861650    Uiso  ? Hf
   Hf5        1.0     0.769774     0.756275     0.352944    Uiso  ? Hf
   N1         1.0     0.226408     0.218159     0.323256    Uiso  ? N
   N2         1.0     0.105907     0.116163     0.077656    Uiso  ? N
   N3         1.0     0.898041     0.209471     0.825072    Uiso  ? N
   N4         1.0     0.789568     0.091626     0.580028    Uiso  ? N
   N5         1.0     0.534067     0.218508     0.341201    Uiso  ? N
   N6         1.0     0.430924     0.116979     0.072755    Uiso  ? N
   N7         1.0     0.229316     0.190173     0.820469    Uiso  ? N
   N8         1.0     0.110469     0.091073     0.580185    Uiso  ? N
   N9         1.0     0.884142     0.226254     0.321054    Uiso  ? N
   N10        1.0     0.773884     0.096592     0.109050    Uiso  ? N
   N11        1.0     0.539714     0.213368     0.826587    Uiso  ? N
   N12        1.0     0.433630     0.084431     0.574163    Uiso  ? N
   N13        1.0     0.221066     0.535537     0.362472    Uiso  ? N
   N14        1.0     0.111838     0.429437     0.075516    Uiso  ? N
   N15        1.0     0.878501     0.535309     0.816405    Uiso  ? N
   N16        1.0     0.775301     0.425479     0.579820    Uiso  ? N
   N17        1.0     0.560292     0.537145     0.330557    Uiso  ? N
   N18        1.0     0.436065     0.420170     0.076510    Uiso  ? N
   N19        1.0     0.233414     0.547368     0.826449    Uiso  ? N
   N20        1.0     0.109905     0.423971     0.590234    Uiso  ? N
   N21        1.0     0.901688     0.513852     0.330790    Uiso  ? N
   N22        1.0     0.797615     0.422940     0.067478    Uiso  ? N
   N23        1.0     0.560147     0.533166     0.837326    Uiso  ? N
   N24        1.0     0.439878     0.446339     0.577123    Uiso  ? N
   N25        1.0     0.231557     0.852698     0.364910    Uiso  ? N
   N26        1.0     0.110104     0.745726     0.134815    Uiso  ? N
   N27        1.0     0.910466     0.863332     0.883638    Uiso  ? N
   N28        1.0     0.772308     0.762287     0.580716    Uiso  ? N
   N29        1.0     0.532484     0.886687     0.326741    Uiso  ? N
   N30        1.0     0.446051     0.757008     0.095365    Uiso  ? N
   N31        1.0     0.221349     0.873193     0.871109    Uiso  ? N
   N32        1.0     0.107867     0.768604     0.620272    Uiso  ? N
   N33        1.0     0.910355     0.858618     0.374745    Uiso  ? N
   N34        1.0     0.794522     0.748155     0.116090    Uiso  ? N
   N35        1.0     0.542069     0.881848     0.838118    Uiso  ? N
   N36        1.0     0.444225     0.759404     0.606163    Uiso  ? N
