
#======================================================================
# CRYSTAL DATA
#----------------------------------------------------------------------
data_VESTA_phase_1

_chemical_name_common                  'Mg   Al   Hf   N                      '
_cell_length_a                         9.860749
_cell_length_b                         9.871305
_cell_length_c                         10.000761
_cell_angle_alpha                      89.852135
_cell_angle_beta                       89.510231
_cell_angle_gamma                      59.988491
_cell_volume                           842.909816
_space_group_name_H-M_alt              'P 1'
_space_group_IT_number                 1

loop_
_space_group_symop_operation_xyz
   'x, y, z'

loop_
   _atom_site_label
   _atom_site_occupancy
   _atom_site_fract_x
   _atom_site_fract_y
   _atom_site_fract_z
   _atom_site_adp_type
   _atom_site_U_iso_or_equiv
   _atom_site_type_symbol
   Mg1        1.0     0.120429     0.089898     0.371415    Uiso  ? Mg
   Mg2        1.0     0.567507     0.533226     0.115375    Uiso  ? Mg
   Mg3        1.0     0.218910     0.870399     0.076046    Uiso  ? Mg
   Mg4        1.0     0.769969     0.758512     0.886296    Uiso  ? Mg
   Mg5        1.0     0.546123     0.880905     0.116291    Uiso  ? Mg
   Al1        1.0     0.219728     0.212187     0.133240    Uiso  ? Al
   Al2        1.0     0.900061     0.205262     0.631433    Uiso  ? Al
   Al3        1.0     0.428306     0.093799     0.381862    Uiso  ? Al
   Al4        1.0     0.535973     0.207800     0.138226    Uiso  ? Al
   Al5        1.0     0.115439     0.093963     0.884162    Uiso  ? Al
   Al6        1.0     0.217773     0.193208     0.630052    Uiso  ? Al
   Al7        1.0     0.901281     0.221679     0.133700    Uiso  ? Al
   Al8        1.0     0.437047     0.093140     0.886661    Uiso  ? Al
   Al9        1.0     0.114778     0.417960     0.388293    Uiso  ? Al
   Al10       1.0     0.220100     0.544211     0.075183    Uiso  ? Al
   Al11       1.0     0.779665     0.430900     0.882459    Uiso  ? Al
   Al12       1.0     0.880133     0.541500     0.628235    Uiso  ? Al
   Al13       1.0     0.435455     0.440382     0.324104    Uiso  ? Al
   Al14       1.0     0.220627     0.549252     0.567887    Uiso  ? Al
   Al15       1.0     0.770988     0.428998     0.387135    Uiso  ? Al
   Al16       1.0     0.899336     0.526685     0.133811    Uiso  ? Al
   Al17       1.0     0.446714     0.436239     0.872502    Uiso  ? Al
   Al18       1.0     0.555926     0.542747     0.633909    Uiso  ? Al
   Al19       1.0     0.126656     0.748840     0.319943    Uiso  ? Al
   Al20       1.0     0.899960     0.862187     0.571509    Uiso  ? Al
   Al21       1.0     0.435639     0.758166     0.304519    Uiso  ? Al
   Al22       1.0     0.118670     0.767685     0.818428    Uiso  ? Al
   Al23       1.0     0.229711     0.864706     0.570012    Uiso  ? Al
   Al24       1.0     0.906182     0.850237     0.082267    Uiso  ? Al
   Al25       1.0     0.435798     0.768886     0.835190    Uiso  ? Al
   Al26       1.0     0.552509     0.871274     0.636101    Uiso  ? Al
   Hf1        1.0     0.777636     0.100176     0.891540    Uiso  ? Hf
   Hf2        1.0     0.782171     0.097562     0.351938    Uiso  ? Hf
   Hf3        1.0     0.545364     0.213148     0.616528    Uiso  ? Hf
   Hf4        1.0     0.111581     0.430027     0.858520    Uiso  ? Hf
   Hf5        1.0     0.771613     0.756157     0.350992    Uiso  ? Hf
   N1         1.0     0.226252     0.216578     0.322140    Uiso  ? N
   N2         1.0     0.105854     0.114819     0.075251    Uiso  ? N
   N3         1.0     0.896547     0.211704     0.825038    Uiso  ? N
   N4         1.0     0.790294     0.091797     0.581549    Uiso  ? N
   N5         1.0     0.536303     0.212017     0.340765    Uiso  ? N
   N6         1.0     0.430783     0.113918     0.072091    Uiso  ? N
   N7         1.0     0.229258     0.191114     0.820468    Uiso  ? N
   N8         1.0     0.110440     0.091488     0.583117    Uiso  ? N
   N9         1.0     0.887116     0.223668     0.320722    Uiso  ? N
   N10        1.0     0.773934     0.095450     0.108718    Uiso  ? N
   N11        1.0     0.539861     0.213944     0.831568    Uiso  ? N
   N12        1.0     0.431407     0.088008     0.574072    Uiso  ? N
   N13        1.0     0.220962     0.536409     0.375888    Uiso  ? N
   N14        1.0     0.110165     0.428616     0.072185    Uiso  ? N
   N15        1.0     0.877762     0.537051     0.816068    Uiso  ? N
   N16        1.0     0.777426     0.425137     0.578988    Uiso  ? N
   N17        1.0     0.559731     0.534012     0.339252    Uiso  ? N
   N18        1.0     0.436538     0.421172     0.108470    Uiso  ? N
   N19        1.0     0.230511     0.556006     0.877606    Uiso  ? N
   N20        1.0     0.110638     0.425045     0.592066    Uiso  ? N
   N21        1.0     0.901555     0.513009     0.330364    Uiso  ? N
   N22        1.0     0.798557     0.422647     0.067911    Uiso  ? N
   N23        1.0     0.563640     0.533824     0.837122    Uiso  ? N
   N24        1.0     0.432776     0.448317     0.608176    Uiso  ? N
   N25        1.0     0.233524     0.846915     0.379448    Uiso  ? N
   N26        1.0     0.109636     0.748628     0.135445    Uiso  ? N
   N27        1.0     0.908607     0.863276     0.886314    Uiso  ? N
   N28        1.0     0.774045     0.761306     0.578647    Uiso  ? N
   N29        1.0     0.533518     0.883692     0.337653    Uiso  ? N
   N30        1.0     0.440264     0.759851     0.116448    Uiso  ? N
   N31        1.0     0.217962     0.877039     0.863764    Uiso  ? N
   N32        1.0     0.108858     0.760536     0.628240    Uiso  ? N
   N33        1.0     0.913247     0.857940     0.376204    Uiso  ? N
   N34        1.0     0.792643     0.749836     0.117593    Uiso  ? N
   N35        1.0     0.544395     0.885896     0.831150    Uiso  ? N
   N36        1.0     0.441596     0.761810     0.632035    Uiso  ? N
