
#======================================================================
# CRYSTAL DATA
#----------------------------------------------------------------------
data_VESTA_phase_1

_chemical_name_common                  'Mg   Al   Hf   N                      '
_cell_length_a                         9.847582
_cell_length_b                         9.863965
_cell_length_c                         9.961102
_cell_angle_alpha                      89.960075
_cell_angle_beta                       89.421707
_cell_angle_gamma                      60.119911
_cell_volume                           838.909427
_space_group_name_H-M_alt              'P 1'
_space_group_IT_number                 1

loop_
_space_group_symop_operation_xyz
   'x, y, z'

loop_
   _atom_site_label
   _atom_site_occupancy
   _atom_site_fract_x
   _atom_site_fract_y
   _atom_site_fract_z
   _atom_site_adp_type
   _atom_site_U_iso_or_equiv
   _atom_site_type_symbol
   Mg1        1.0     0.117013     0.095113     0.368980    Uiso  ? Mg
   Mg2        1.0     0.566947     0.524829     0.120145    Uiso  ? Mg
   Mg3        1.0     0.211763     0.874670     0.087265    Uiso  ? Mg
   Mg4        1.0     0.772235     0.758071     0.881384    Uiso  ? Mg
   Mg5        1.0     0.551305     0.884004     0.113664    Uiso  ? Mg
   Al1        1.0     0.220909     0.211739     0.134558    Uiso  ? Al
   Al2        1.0     0.900024     0.204770     0.630165    Uiso  ? Al
   Al3        1.0     0.428424     0.094131     0.380930    Uiso  ? Al
   Al4        1.0     0.530395     0.217891     0.140201    Uiso  ? Al
   Al5        1.0     0.117877     0.090258     0.885092    Uiso  ? Al
   Al6        1.0     0.218345     0.191691     0.629610    Uiso  ? Al
   Al7        1.0     0.900113     0.222880     0.133133    Uiso  ? Al
   Al8        1.0     0.436842     0.093440     0.886286    Uiso  ? Al
   Al9        1.0     0.115621     0.419652     0.390762    Uiso  ? Al
   Al10       1.0     0.223658     0.532103     0.122692    Uiso  ? Al
   Al11       1.0     0.778460     0.429923     0.881361    Uiso  ? Al
   Al12       1.0     0.879287     0.540988     0.628321    Uiso  ? Al
   Al13       1.0     0.440049     0.446449     0.383289    Uiso  ? Al
   Al14       1.0     0.218122     0.547916     0.601740    Uiso  ? Al
   Al15       1.0     0.770159     0.431264     0.387548    Uiso  ? Al
   Al16       1.0     0.897918     0.527366     0.133865    Uiso  ? Al
   Al17       1.0     0.440378     0.437013     0.886603    Uiso  ? Al
   Al18       1.0     0.552445     0.549556     0.640422    Uiso  ? Al
   Al19       1.0     0.123327     0.750957     0.322157    Uiso  ? Al
   Al20       1.0     0.898285     0.864124     0.570322    Uiso  ? Al
   Al21       1.0     0.438360     0.759384     0.300702    Uiso  ? Al
   Al22       1.0     0.121786     0.769185     0.813508    Uiso  ? Al
   Al23       1.0     0.233313     0.864992     0.560791    Uiso  ? Al
   Al24       1.0     0.908719     0.846494     0.079102    Uiso  ? Al
   Al25       1.0     0.441525     0.762407     0.894780    Uiso  ? Al
   Al26       1.0     0.546704     0.866813     0.642842    Uiso  ? Al
   Hf1        1.0     0.776389     0.100437     0.890948    Uiso  ? Hf
   Hf2        1.0     0.780728     0.097810     0.347060    Uiso  ? Hf
   Hf3        1.0     0.547560     0.209253     0.616113    Uiso  ? Hf
   Hf4        1.0     0.112413     0.429527     0.862112    Uiso  ? Hf
   Hf5        1.0     0.769766     0.756264     0.352936    Uiso  ? Hf
   N1         1.0     0.226405     0.218132     0.323275    Uiso  ? N
   N2         1.0     0.105905     0.116166     0.077619    Uiso  ? N
   N3         1.0     0.898023     0.209461     0.825066    Uiso  ? N
   N4         1.0     0.789558     0.091635     0.580015    Uiso  ? N
   N5         1.0     0.534097     0.218469     0.341179    Uiso  ? N
   N6         1.0     0.430924     0.116964     0.072736    Uiso  ? N
   N7         1.0     0.229229     0.190305     0.820470    Uiso  ? N
   N8         1.0     0.110471     0.091109     0.580209    Uiso  ? N
   N9         1.0     0.884140     0.226261     0.321042    Uiso  ? N
   N10        1.0     0.773854     0.096635     0.109007    Uiso  ? N
   N11        1.0     0.539671     0.213409     0.826545    Uiso  ? N
   N12        1.0     0.433643     0.084426     0.574173    Uiso  ? N
   N13        1.0     0.221373     0.535095     0.359996    Uiso  ? N
   N14        1.0     0.111905     0.429533     0.075662    Uiso  ? N
   N15        1.0     0.878652     0.535197     0.816402    Uiso  ? N
   N16        1.0     0.775308     0.425479     0.579829    Uiso  ? N
   N17        1.0     0.560295     0.537137     0.330533    Uiso  ? N
   N18        1.0     0.435754     0.420290     0.076408    Uiso  ? N
   N19        1.0     0.233565     0.547095     0.824626    Uiso  ? N
   N20        1.0     0.110019     0.424100     0.589988    Uiso  ? N
   N21        1.0     0.901703     0.513853     0.330811    Uiso  ? N
   N22        1.0     0.797607     0.422944     0.067459    Uiso  ? N
   N23        1.0     0.560073     0.533149     0.837309    Uiso  ? N
   N24        1.0     0.439729     0.446400     0.576849    Uiso  ? N
   N25        1.0     0.231589     0.852746     0.364937    Uiso  ? N
   N26        1.0     0.110073     0.745854     0.134709    Uiso  ? N
   N27        1.0     0.910467     0.863297     0.883578    Uiso  ? N
   N28        1.0     0.772303     0.762275     0.580736    Uiso  ? N
   N29        1.0     0.532481     0.886684     0.326740    Uiso  ? N
   N30        1.0     0.446067     0.757008     0.095341    Uiso  ? N
   N31        1.0     0.221368     0.873169     0.871079    Uiso  ? N
   N32        1.0     0.107826     0.768714     0.620079    Uiso  ? N
   N33        1.0     0.910318     0.858622     0.374764    Uiso  ? N
   N34        1.0     0.794514     0.748154     0.116067    Uiso  ? N
   N35        1.0     0.542058     0.881857     0.838104    Uiso  ? N
   N36        1.0     0.444223     0.759395     0.606169    Uiso  ? N
