
#======================================================================
# CRYSTAL DATA
#----------------------------------------------------------------------
data_VESTA_phase_1

_chemical_name_common                  'Mg   Al   Hf   N                      '
_cell_length_a                         9.855011
_cell_length_b                         9.861490
_cell_length_c                         10.016265
_cell_angle_alpha                      89.862587
_cell_angle_beta                       89.484497
_cell_angle_gamma                      60.010151
_cell_volume                           843.066159
_space_group_name_H-M_alt              'P 1'
_space_group_IT_number                 1

loop_
_space_group_symop_operation_xyz
   'x, y, z'

loop_
   _atom_site_label
   _atom_site_occupancy
   _atom_site_fract_x
   _atom_site_fract_y
   _atom_site_fract_z
   _atom_site_adp_type
   _atom_site_U_iso_or_equiv
   _atom_site_type_symbol
   Mg1        1.0     0.120436     0.089548     0.371509    Uiso  ? Mg
   Mg2        1.0     0.567072     0.531634     0.120459    Uiso  ? Mg
   Mg3        1.0     0.219339     0.870251     0.075424    Uiso  ? Mg
   Mg4        1.0     0.769880     0.758630     0.886305    Uiso  ? Mg
   Mg5        1.0     0.546300     0.881235     0.116147    Uiso  ? Mg
   Al1        1.0     0.220011     0.211860     0.133207    Uiso  ? Al
   Al2        1.0     0.900009     0.205136     0.631546    Uiso  ? Al
   Al3        1.0     0.428317     0.094266     0.381463    Uiso  ? Al
   Al4        1.0     0.533365     0.212749     0.139105    Uiso  ? Al
   Al5        1.0     0.115427     0.094011     0.884105    Uiso  ? Al
   Al6        1.0     0.217970     0.193027     0.630177    Uiso  ? Al
   Al7        1.0     0.901141     0.221520     0.133446    Uiso  ? Al
   Al8        1.0     0.437010     0.093475     0.886990    Uiso  ? Al
   Al9        1.0     0.114206     0.417737     0.387559    Uiso  ? Al
   Al10       1.0     0.220181     0.544072     0.075835    Uiso  ? Al
   Al11       1.0     0.778360     0.431300     0.882329    Uiso  ? Al
   Al12       1.0     0.879743     0.541520     0.628569    Uiso  ? Al
   Al13       1.0     0.438984     0.440700     0.361078    Uiso  ? Al
   Al14       1.0     0.216989     0.550250     0.568304    Uiso  ? Al
   Al15       1.0     0.772068     0.428695     0.387269    Uiso  ? Al
   Al16       1.0     0.899058     0.526701     0.133498    Uiso  ? Al
   Al17       1.0     0.448256     0.435061     0.892435    Uiso  ? Al
   Al18       1.0     0.555925     0.541660     0.635244    Uiso  ? Al
   Al19       1.0     0.126668     0.748767     0.319051    Uiso  ? Al
   Al20       1.0     0.899716     0.862458     0.571064    Uiso  ? Al
   Al21       1.0     0.435421     0.758953     0.303848    Uiso  ? Al
   Al22       1.0     0.118651     0.767435     0.818298    Uiso  ? Al
   Al23       1.0     0.229884     0.864524     0.569906    Uiso  ? Al
   Al24       1.0     0.906051     0.850673     0.082024    Uiso  ? Al
   Al25       1.0     0.435786     0.768021     0.834943    Uiso  ? Al
   Al26       1.0     0.552601     0.870864     0.636243    Uiso  ? Al
   Hf1        1.0     0.776874     0.100923     0.892222    Uiso  ? Hf
   Hf2        1.0     0.781645     0.097685     0.350702    Uiso  ? Hf
   Hf3        1.0     0.545983     0.212076     0.618935    Uiso  ? Hf
   Hf4        1.0     0.111554     0.430234     0.858898    Uiso  ? Hf
   Hf5        1.0     0.771700     0.756106     0.350783    Uiso  ? Hf
   N1         1.0     0.226165     0.216196     0.322009    Uiso  ? N
   N2         1.0     0.105875     0.114884     0.075004    Uiso  ? N
   N3         1.0     0.896594     0.211446     0.824849    Uiso  ? N
   N4         1.0     0.789589     0.091851     0.581018    Uiso  ? N
   N5         1.0     0.535037     0.214192     0.338601    Uiso  ? N
   N6         1.0     0.431215     0.114513     0.072401    Uiso  ? N
   N7         1.0     0.229527     0.190989     0.820175    Uiso  ? N
   N8         1.0     0.110500     0.091368     0.582916    Uiso  ? N
   N9         1.0     0.887305     0.223364     0.320599    Uiso  ? N
   N10        1.0     0.774450     0.095421     0.109136    Uiso  ? N
   N11        1.0     0.539081     0.215460     0.829882    Uiso  ? N
   N12        1.0     0.432089     0.087925     0.573568    Uiso  ? N
   N13        1.0     0.218000     0.537449     0.374805    Uiso  ? N
   N14        1.0     0.110386     0.428609     0.072507    Uiso  ? N
   N15        1.0     0.877326     0.537099     0.816005    Uiso  ? N
   N16        1.0     0.777371     0.424937     0.578743    Uiso  ? N
   N17        1.0     0.561276     0.534295     0.337411    Uiso  ? N
   N18        1.0     0.440462     0.419364     0.087753    Uiso  ? N
   N19        1.0     0.230313     0.555686     0.874156    Uiso  ? N
   N20        1.0     0.110425     0.424762     0.591797    Uiso  ? N
   N21        1.0     0.901490     0.512882     0.329914    Uiso  ? N
   N22        1.0     0.797831     0.422843     0.067630    Uiso  ? N
   N23        1.0     0.562211     0.531587     0.834175    Uiso  ? N
   N24        1.0     0.436449     0.446787     0.583188    Uiso  ? N
   N25        1.0     0.233983     0.846191     0.379617    Uiso  ? N
   N26        1.0     0.109725     0.748873     0.134932    Uiso  ? N
   N27        1.0     0.908155     0.863951     0.886236    Uiso  ? N
   N28        1.0     0.774076     0.761169     0.578353    Uiso  ? N
   N29        1.0     0.533633     0.884085     0.337386    Uiso  ? N
   N30        1.0     0.440771     0.759444     0.116196    Uiso  ? N
   N31        1.0     0.217968     0.876998     0.863603    Uiso  ? N
   N32        1.0     0.108678     0.760884     0.628122    Uiso  ? N
   N33        1.0     0.913176     0.858209     0.376053    Uiso  ? N
   N34        1.0     0.792798     0.749861     0.117649    Uiso  ? N
   N35        1.0     0.544235     0.885859     0.831007    Uiso  ? N
   N36        1.0     0.441618     0.761184     0.631982    Uiso  ? N
