
#======================================================================
# CRYSTAL DATA
#----------------------------------------------------------------------
data_VESTA_phase_1

_chemical_name_common                  'Mg   Al   Hf   N                      '
_cell_length_a                         9.778537
_cell_length_b                         9.798350
_cell_length_c                         10.158065
_cell_angle_alpha                      89.833321
_cell_angle_beta                       89.747620
_cell_angle_gamma                      59.954834
_cell_volume                           842.492913
_space_group_name_H-M_alt              'P 1'
_space_group_IT_number                 1

loop_
_space_group_symop_operation_xyz
   'x, y, z'

loop_
   _atom_site_label
   _atom_site_occupancy
   _atom_site_fract_x
   _atom_site_fract_y
   _atom_site_fract_z
   _atom_site_adp_type
   _atom_site_U_iso_or_equiv
   _atom_site_type_symbol
   Mg1        1.0     0.116093     0.087726     0.318752    Uiso  ? Mg
   Mg2        1.0     0.556191     0.541065     0.067724    Uiso  ? Mg
   Mg3        1.0     0.225853     0.872699     0.064579    Uiso  ? Mg
   Mg4        1.0     0.773791     0.758336     0.806122    Uiso  ? Mg
   Mg5        1.0     0.555450     0.864257     0.062546    Uiso  ? Mg
   Al1        1.0     0.228135     0.201333     0.127933    Uiso  ? Al
   Al2        1.0     0.893355     0.207285     0.566180    Uiso  ? Al
   Al3        1.0     0.429094     0.099111     0.382363    Uiso  ? Al
   Al4        1.0     0.536116     0.221766     0.057396    Uiso  ? Al
   Al5        1.0     0.115575     0.081586     0.812856    Uiso  ? Al
   Al6        1.0     0.215674     0.203738     0.627548    Uiso  ? Al
   Al7        1.0     0.904524     0.219789     0.058443    Uiso  ? Al
   Al8        1.0     0.433709     0.088879     0.876303    Uiso  ? Al
   Al9        1.0     0.115591     0.430677     0.305658    Uiso  ? Al
   Al10       1.0     0.226483     0.545840     0.072190    Uiso  ? Al
   Al11       1.0     0.770619     0.435231     0.811213    Uiso  ? Al
   Al12       1.0     0.894241     0.529941     0.563906    Uiso  ? Al
   Al13       1.0     0.439407     0.434200     0.315068    Uiso  ? Al
   Al14       1.0     0.213993     0.546218     0.561110    Uiso  ? Al
   Al15       1.0     0.777438     0.425459     0.314257    Uiso  ? Al
   Al16       1.0     0.882519     0.539259     0.069102    Uiso  ? Al
   Al17       1.0     0.440079     0.449039     0.812852    Uiso  ? Al
   Al18       1.0     0.554417     0.545569     0.562448    Uiso  ? Al
   Al19       1.0     0.123061     0.756742     0.314162    Uiso  ? Al
   Al20       1.0     0.899627     0.865855     0.568425    Uiso  ? Al
   Al21       1.0     0.436933     0.759176     0.311481    Uiso  ? Al
   Al22       1.0     0.122766     0.759382     0.812486    Uiso  ? Al
   Al23       1.0     0.223920     0.866658     0.564557    Uiso  ? Al
   Al24       1.0     0.904738     0.848135     0.061742    Uiso  ? Al
   Al25       1.0     0.443325     0.762167     0.810092    Uiso  ? Al
   Al26       1.0     0.549308     0.865362     0.575089    Uiso  ? Al
   Hf1        1.0     0.785699     0.088976     0.844438    Uiso  ? Hf
   Hf2        1.0     0.776494     0.101310     0.299519    Uiso  ? Hf
   Hf3        1.0     0.551480     0.210227     0.592693    Uiso  ? Hf
   Hf4        1.0     0.111339     0.430884     0.844304    Uiso  ? Hf
   Hf5        1.0     0.775895     0.757410     0.332429    Uiso  ? Hf
   N1         1.0     0.232194     0.214977     0.317950    Uiso  ? N
   N2         1.0     0.106634     0.105516     0.111347    Uiso  ? N
   N3         1.0     0.898973     0.217273     0.868662    Uiso  ? N
   N4         1.0     0.796705     0.082620     0.629442    Uiso  ? N
   N5         1.0     0.548379     0.211685     0.378498    Uiso  ? N
   N6         1.0     0.432965     0.110375     0.061549    Uiso  ? N
   N7         1.0     0.226619     0.190873     0.818568    Uiso  ? N
   N8         1.0     0.106749     0.090134     0.616546    Uiso  ? N
   N9         1.0     0.877179     0.216976     0.380927    Uiso  ? N
   N10        1.0     0.771816     0.098678     0.084667    Uiso  ? N
   N11        1.0     0.534888     0.221693     0.843721    Uiso  ? N
   N12        1.0     0.427082     0.092873     0.576377    Uiso  ? N
   N13        1.0     0.219378     0.539052     0.372524    Uiso  ? N
   N14        1.0     0.109503     0.434895     0.102225    Uiso  ? N
   N15        1.0     0.874835     0.534862     0.880470    Uiso  ? N
   N16        1.0     0.778439     0.427390     0.621052    Uiso  ? N
   N17        1.0     0.558421     0.534332     0.374281    Uiso  ? N
   N18        1.0     0.437968     0.420735     0.129792    Uiso  ? N
   N19        1.0     0.235248     0.551108     0.881170    Uiso  ? N
   N20        1.0     0.108726     0.434094     0.626073    Uiso  ? N
   N21        1.0     0.903519     0.515696     0.374533    Uiso  ? N
   N22        1.0     0.791160     0.421227     0.129952    Uiso  ? N
   N23        1.0     0.557450     0.540653     0.859072    Uiso  ? N
   N24        1.0     0.428935     0.451991     0.622221    Uiso  ? N
   N25        1.0     0.228659     0.854558     0.380556    Uiso  ? N
   N26        1.0     0.106440     0.754785     0.131124    Uiso  ? N
   N27        1.0     0.912811     0.849323     0.875605    Uiso  ? N
   N28        1.0     0.780479     0.758079     0.591211    Uiso  ? N
   N29        1.0     0.537745     0.876103     0.378989    Uiso  ? N
   N30        1.0     0.445215     0.759100     0.134294    Uiso  ? N
   N31        1.0     0.224128     0.869622     0.855571    Uiso  ? N
   N32        1.0     0.111417     0.757233     0.623359    Uiso  ? N
   N33        1.0     0.902703     0.874820     0.378044    Uiso  ? N
   N34        1.0     0.791946     0.753705     0.127338    Uiso  ? N
   N35        1.0     0.544169     0.877036     0.846049    Uiso  ? N
   N36        1.0     0.442505     0.757577     0.619276    Uiso  ? N
