
#======================================================================
# CRYSTAL DATA
#----------------------------------------------------------------------
data_VESTA_phase_1

_chemical_name_common                  'Mg   Al   Hf   N                      '
_cell_length_a                         9.768003
_cell_length_b                         9.790020
_cell_length_c                         10.262029
_cell_angle_alpha                      89.773331
_cell_angle_beta                       89.552765
_cell_angle_gamma                      60.267784
_cell_volume                           852.129462
_space_group_name_H-M_alt              'P 1'
_space_group_IT_number                 1

loop_
_space_group_symop_operation_xyz
   'x, y, z'

loop_
   _atom_site_label
   _atom_site_occupancy
   _atom_site_fract_x
   _atom_site_fract_y
   _atom_site_fract_z
   _atom_site_adp_type
   _atom_site_U_iso_or_equiv
   _atom_site_type_symbol
   Mg1        1.0     0.113579     0.091124     0.374475    Uiso  ? Mg
   Mg2        1.0     0.556080     0.543576     0.069694    Uiso  ? Mg
   Mg3        1.0     0.225963     0.867932     0.076832    Uiso  ? Mg
   Mg4        1.0     0.764887     0.754601     0.896150    Uiso  ? Mg
   Mg5        1.0     0.545025     0.884644     0.131546    Uiso  ? Mg
   Al1        1.0     0.223115     0.211176     0.138041    Uiso  ? Al
   Al2        1.0     0.900476     0.201362     0.628066    Uiso  ? Al
   Al3        1.0     0.427931     0.095275     0.391205    Uiso  ? Al
   Al4        1.0     0.533789     0.224729     0.059377    Uiso  ? Al
   Al5        1.0     0.119218     0.092651     0.888266    Uiso  ? Al
   Al6        1.0     0.215719     0.195586     0.635636    Uiso  ? Al
   Al7        1.0     0.896439     0.217022     0.106871    Uiso  ? Al
   Al8        1.0     0.434653     0.087985     0.883909    Uiso  ? Al
   Al9        1.0     0.117214     0.415937     0.392769    Uiso  ? Al
   Al10       1.0     0.228283     0.545178     0.078053    Uiso  ? Al
   Al11       1.0     0.765371     0.436009     0.814347    Uiso  ? Al
   Al12       1.0     0.886555     0.541247     0.631192    Uiso  ? Al
   Al13       1.0     0.436614     0.434208     0.320726    Uiso  ? Al
   Al14       1.0     0.219479     0.548393     0.570475    Uiso  ? Al
   Al15       1.0     0.768926     0.426639     0.313228    Uiso  ? Al
   Al16       1.0     0.901860     0.533154     0.142212    Uiso  ? Al
   Al17       1.0     0.440721     0.449002     0.818411    Uiso  ? Al
   Al18       1.0     0.554994     0.546292     0.564915    Uiso  ? Al
   Al19       1.0     0.124854     0.752168     0.323859    Uiso  ? Al
   Al20       1.0     0.901501     0.864570     0.575845    Uiso  ? Al
   Al21       1.0     0.435780     0.757065     0.314628    Uiso  ? Al
   Al22       1.0     0.122031     0.762746     0.820318    Uiso  ? Al
   Al23       1.0     0.228326     0.864841     0.570272    Uiso  ? Al
   Al24       1.0     0.910198     0.848779     0.073116    Uiso  ? Al
   Al25       1.0     0.438052     0.762851     0.818400    Uiso  ? Al
   Al26       1.0     0.556427     0.869049     0.636003    Uiso  ? Al
   Hf1        1.0     0.786427     0.086308     0.853574    Uiso  ? Hf
   Hf2        1.0     0.767212     0.092833     0.303971    Uiso  ? Hf
   Hf3        1.0     0.551283     0.210012     0.596128    Uiso  ? Hf
   Hf4        1.0     0.110856     0.429136     0.873042    Uiso  ? Hf
   Hf5        1.0     0.775906     0.755916     0.361409    Uiso  ? Hf
   N1         1.0     0.228947     0.214709     0.323014    Uiso  ? N
   N2         1.0     0.108677     0.115059     0.074117    Uiso  ? N
   N3         1.0     0.900060     0.214946     0.841425    Uiso  ? N
   N4         1.0     0.794280     0.078263     0.637354    Uiso  ? N
   N5         1.0     0.541853     0.216673     0.388104    Uiso  ? N
   N6         1.0     0.429473     0.112007     0.066336    Uiso  ? N
   N7         1.0     0.227741     0.192774     0.819916    Uiso  ? N
   N8         1.0     0.109975     0.091350     0.584422    Uiso  ? N
   N9         1.0     0.879212     0.209781     0.329660    Uiso  ? N
   N10        1.0     0.772011     0.099522     0.089889    Uiso  ? N
   N11        1.0     0.535450     0.223366     0.856237    Uiso  ? N
   N12        1.0     0.430422     0.086424     0.580988    Uiso  ? N
   N13        1.0     0.222828     0.538225     0.384488    Uiso  ? N
   N14        1.0     0.111319     0.430370     0.078228    Uiso  ? N
   N15        1.0     0.881183     0.539378     0.818161    Uiso  ? N
   N16        1.0     0.771940     0.424454     0.620651    Uiso  ? N
   N17        1.0     0.556707     0.535266     0.378498    Uiso  ? N
   N18        1.0     0.437539     0.420255     0.136332    Uiso  ? N
   N19        1.0     0.235606     0.553059     0.884202    Uiso  ? N
   N20        1.0     0.112243     0.422030     0.589780    Uiso  ? N
   N21        1.0     0.905344     0.513784     0.336403    Uiso  ? N
   N22        1.0     0.786361     0.430177     0.124785    Uiso  ? N
   N23        1.0     0.555996     0.543816     0.866332    Uiso  ? N
   N24        1.0     0.431279     0.450737     0.631055    Uiso  ? N
   N25        1.0     0.233404     0.847692     0.386731    Uiso  ? N
   N26        1.0     0.109284     0.750826     0.142113    Uiso  ? N
   N27        1.0     0.915749     0.849204     0.889606    Uiso  ? N
   N28        1.0     0.777237     0.758521     0.578535    Uiso  ? N
   N29        1.0     0.537277     0.885724     0.345473    Uiso  ? N
   N30        1.0     0.441862     0.757170     0.137779    Uiso  ? N
   N31        1.0     0.222972     0.873992     0.866069    Uiso  ? N
   N32        1.0     0.111709     0.757794     0.633491    Uiso  ? N
   N33        1.0     0.908435     0.871834     0.387064    Uiso  ? N
   N34        1.0     0.791863     0.755579     0.123435    Uiso  ? N
   N35        1.0     0.545646     0.883217     0.823925    Uiso  ? N
   N36        1.0     0.444735     0.756402     0.626656    Uiso  ? N
