
#======================================================================
# CRYSTAL DATA
#----------------------------------------------------------------------
data_VESTA_phase_1

_chemical_name_common                  'Mg   Al   Hf   N                      '
_cell_length_a                         9.826667
_cell_length_b                         9.840356
_cell_length_c                         10.084146
_cell_angle_alpha                      89.931786
_cell_angle_beta                       89.471375
_cell_angle_gamma                      60.096729
_cell_volume                           845.254433
_space_group_name_H-M_alt              'P 1'
_space_group_IT_number                 1

loop_
_space_group_symop_operation_xyz
   'x, y, z'

loop_
   _atom_site_label
   _atom_site_occupancy
   _atom_site_fract_x
   _atom_site_fract_y
   _atom_site_fract_z
   _atom_site_adp_type
   _atom_site_U_iso_or_equiv
   _atom_site_type_symbol
   Mg1        1.0     0.120642     0.089511     0.372076    Uiso  ? Mg
   Mg2        1.0     0.566017     0.528394     0.124035    Uiso  ? Mg
   Mg3        1.0     0.220321     0.869581     0.075308    Uiso  ? Mg
   Mg4        1.0     0.770132     0.758593     0.888285    Uiso  ? Mg
   Mg5        1.0     0.546963     0.882223     0.115869    Uiso  ? Mg
   Al1        1.0     0.220345     0.212099     0.133271    Uiso  ? Al
   Al2        1.0     0.899768     0.203735     0.631699    Uiso  ? Al
   Al3        1.0     0.428426     0.095403     0.381376    Uiso  ? Al
   Al4        1.0     0.528706     0.219073     0.142396    Uiso  ? Al
   Al5        1.0     0.114981     0.093360     0.884900    Uiso  ? Al
   Al6        1.0     0.218334     0.191686     0.630938    Uiso  ? Al
   Al7        1.0     0.901522     0.221621     0.134325    Uiso  ? Al
   Al8        1.0     0.436989     0.093867     0.887532    Uiso  ? Al
   Al9        1.0     0.114911     0.417833     0.387958    Uiso  ? Al
   Al10       1.0     0.222118     0.543461     0.071922    Uiso  ? Al
   Al11       1.0     0.777220     0.431125     0.882833    Uiso  ? Al
   Al12       1.0     0.879247     0.541330     0.629274    Uiso  ? Al
   Al13       1.0     0.440451     0.444648     0.383350    Uiso  ? Al
   Al14       1.0     0.212927     0.551271     0.572151    Uiso  ? Al
   Al15       1.0     0.773454     0.428460     0.387653    Uiso  ? Al
   Al16       1.0     0.899239     0.526429     0.133271    Uiso  ? Al
   Al17       1.0     0.447857     0.434671     0.888702    Uiso  ? Al
   Al18       1.0     0.557404     0.541929     0.636293    Uiso  ? Al
   Al19       1.0     0.128267     0.746530     0.318501    Uiso  ? Al
   Al20       1.0     0.899222     0.863122     0.568073    Uiso  ? Al
   Al21       1.0     0.435993     0.759748     0.301436    Uiso  ? Al
   Al22       1.0     0.116474     0.769527     0.817443    Uiso  ? Al
   Al23       1.0     0.230491     0.863984     0.568163    Uiso  ? Al
   Al24       1.0     0.907195     0.850151     0.083048    Uiso  ? Al
   Al25       1.0     0.435954     0.767102     0.836597    Uiso  ? Al
   Al26       1.0     0.552852     0.870143     0.638157    Uiso  ? Al
   Hf1        1.0     0.773982     0.103268     0.896782    Uiso  ? Hf
   Hf2        1.0     0.780951     0.097926     0.347876    Uiso  ? Hf
   Hf3        1.0     0.547758     0.209461     0.618546    Uiso  ? Hf
   Hf4        1.0     0.110368     0.429140     0.859167    Uiso  ? Hf
   Hf5        1.0     0.771615     0.755650     0.350234    Uiso  ? Hf
   N1         1.0     0.226331     0.216544     0.321118    Uiso  ? N
   N2         1.0     0.106074     0.114939     0.074574    Uiso  ? N
   N3         1.0     0.895722     0.210454     0.824442    Uiso  ? N
   N4         1.0     0.789534     0.091405     0.577517    Uiso  ? N
   N5         1.0     0.532912     0.219339     0.340300    Uiso  ? N
   N6         1.0     0.431821     0.116045     0.072125    Uiso  ? N
   N7         1.0     0.229732     0.189629     0.819689    Uiso  ? N
   N8         1.0     0.110497     0.090586     0.582162    Uiso  ? N
   N9         1.0     0.887887     0.223448     0.320248    Uiso  ? N
   N10        1.0     0.774463     0.095903     0.112065    Uiso  ? N
   N11        1.0     0.538937     0.214585     0.826199    Uiso  ? N
   N12        1.0     0.432785     0.086325     0.572693    Uiso  ? N
   N13        1.0     0.217774     0.538391     0.379752    Uiso  ? N
   N14        1.0     0.110978     0.428562     0.071206    Uiso  ? N
   N15        1.0     0.875798     0.537574     0.815661    Uiso  ? N
   N16        1.0     0.777960     0.423983     0.578095    Uiso  ? N
   N17        1.0     0.561827     0.535385     0.338170    Uiso  ? N
   N18        1.0     0.442264     0.418253     0.076562    Uiso  ? N
   N19        1.0     0.228703     0.555663     0.868630    Uiso  ? N
   N20        1.0     0.109855     0.423434     0.592688    Uiso  ? N
   N21        1.0     0.902697     0.512269     0.328574    Uiso  ? N
   N22        1.0     0.797035     0.422488     0.067141    Uiso  ? N
   N23        1.0     0.562414     0.530477     0.830918    Uiso  ? N
   N24        1.0     0.437582     0.446642     0.579430    Uiso  ? N
   N25        1.0     0.235180     0.845488     0.378826    Uiso  ? N
   N26        1.0     0.111816     0.746540     0.135083    Uiso  ? N
   N27        1.0     0.906950     0.866443     0.888642    Uiso  ? N
   N28        1.0     0.773706     0.760654     0.576980    Uiso  ? N
   N29        1.0     0.533561     0.886158     0.334100    Uiso  ? N
   N30        1.0     0.443041     0.757511     0.114600    Uiso  ? N
   N31        1.0     0.218074     0.876253     0.865380    Uiso  ? N
   N32        1.0     0.106971     0.763029     0.628477    Uiso  ? N
   N33        1.0     0.913467     0.857740     0.374587    Uiso  ? N
   N34        1.0     0.793496     0.749259     0.117505    Uiso  ? N
   N35        1.0     0.544549     0.885624     0.831664    Uiso  ? N
   N36        1.0     0.440871     0.761296     0.633057    Uiso  ? N
