
#======================================================================
# CRYSTAL DATA
#----------------------------------------------------------------------
data_VESTA_phase_1

_chemical_name_common                  'Mg   Al   Hf   N                      '
_cell_length_a                         9.850946
_cell_length_b                         9.864147
_cell_length_c                         9.966049
_cell_angle_alpha                      89.942612
_cell_angle_beta                       89.401260
_cell_angle_gamma                      60.106556
_cell_volume                           839.513428
_space_group_name_H-M_alt              'P 1'
_space_group_IT_number                 1

loop_
_space_group_symop_operation_xyz
   'x, y, z'

loop_
   _atom_site_label
   _atom_site_occupancy
   _atom_site_fract_x
   _atom_site_fract_y
   _atom_site_fract_z
   _atom_site_adp_type
   _atom_site_U_iso_or_equiv
   _atom_site_type_symbol
   Mg1        1.0     0.117099     0.094860     0.368888    Uiso  ? Mg
   Mg2        1.0     0.567314     0.524897     0.120558    Uiso  ? Mg
   Mg3        1.0     0.211750     0.874879     0.087463    Uiso  ? Mg
   Mg4        1.0     0.772211     0.758269     0.881576    Uiso  ? Mg
   Mg5        1.0     0.551250     0.883985     0.113753    Uiso  ? Mg
   Al1        1.0     0.220759     0.212178     0.134375    Uiso  ? Al
   Al2        1.0     0.900047     0.204737     0.630219    Uiso  ? Al
   Al3        1.0     0.428377     0.094145     0.381082    Uiso  ? Al
   Al4        1.0     0.530232     0.217826     0.140769    Uiso  ? Al
   Al5        1.0     0.117953     0.090212     0.885284    Uiso  ? Al
   Al6        1.0     0.218514     0.191113     0.629727    Uiso  ? Al
   Al7        1.0     0.900165     0.222898     0.133258    Uiso  ? Al
   Al8        1.0     0.436872     0.093326     0.886449    Uiso  ? Al
   Al9        1.0     0.114929     0.419337     0.390606    Uiso  ? Al
   Al10       1.0     0.222699     0.535358     0.101286    Uiso  ? Al
   Al11       1.0     0.778508     0.430029     0.881516    Uiso  ? Al
   Al12       1.0     0.878763     0.541151     0.628503    Uiso  ? Al
   Al13       1.0     0.440587     0.446085     0.383378    Uiso  ? Al
   Al14       1.0     0.216262     0.549483     0.585613    Uiso  ? Al
   Al15       1.0     0.770171     0.431199     0.387661    Uiso  ? Al
   Al16       1.0     0.898177     0.527255     0.133638    Uiso  ? Al
   Al17       1.0     0.442904     0.435777     0.886475    Uiso  ? Al
   Al18       1.0     0.552445     0.549580     0.640630    Uiso  ? Al
   Al19       1.0     0.124206     0.748961     0.321662    Uiso  ? Al
   Al20       1.0     0.898575     0.863971     0.570596    Uiso  ? Al
   Al21       1.0     0.438212     0.759468     0.300885    Uiso  ? Al
   Al22       1.0     0.122320     0.768458     0.814106    Uiso  ? Al
   Al23       1.0     0.233300     0.864774     0.561013    Uiso  ? Al
   Al24       1.0     0.908154     0.847084     0.079471    Uiso  ? Al
   Al25       1.0     0.441425     0.762488     0.894828    Uiso  ? Al
   Al26       1.0     0.546687     0.866836     0.642938    Uiso  ? Al
   Hf1        1.0     0.776520     0.100497     0.891237    Uiso  ? Hf
   Hf2        1.0     0.780879     0.097709     0.347312    Uiso  ? Hf
   Hf3        1.0     0.547533     0.209250     0.616396    Uiso  ? Hf
   Hf4        1.0     0.111984     0.429167     0.859456    Uiso  ? Hf
   Hf5        1.0     0.769839     0.756330     0.352967    Uiso  ? Hf
   N1         1.0     0.226422     0.218269     0.323174    Uiso  ? N
   N2         1.0     0.105917     0.116152     0.077829    Uiso  ? N
   N3         1.0     0.898107     0.209516     0.825082    Uiso  ? N
   N4         1.0     0.789681     0.091525     0.580028    Uiso  ? N
   N5         1.0     0.533930     0.218698     0.341418    Uiso  ? N
   N6         1.0     0.430933     0.117049     0.072829    Uiso  ? N
   N7         1.0     0.229737     0.189463     0.820409    Uiso  ? N
   N8         1.0     0.110461     0.090859     0.580042    Uiso  ? N
   N9         1.0     0.884151     0.226214     0.321092    Uiso  ? N
   N10        1.0     0.774089     0.096301     0.109334    Uiso  ? N
   N11        1.0     0.539871     0.213186     0.826653    Uiso  ? N
   N12        1.0     0.433590     0.084440     0.574107    Uiso  ? N
   N13        1.0     0.219610     0.537549     0.373797    Uiso  ? N
   N14        1.0     0.111366     0.428815     0.074613    Uiso  ? N
   N15        1.0     0.877671     0.535868     0.816371    Uiso  ? N
   N16        1.0     0.775292     0.425451     0.579735    Uiso  ? N
   N17        1.0     0.560245     0.537170     0.330780    Uiso  ? N
   N18        1.0     0.437988     0.419400     0.077038    Uiso  ? N
   N19        1.0     0.232216     0.549355     0.839965    Uiso  ? N
   N20        1.0     0.109591     0.423551     0.591686    Uiso  ? N
   N21        1.0     0.901653     0.513828     0.330714    Uiso  ? N
   N22        1.0     0.797615     0.422944     0.067562    Uiso  ? N
   N23        1.0     0.560531     0.533302     0.837227    Uiso  ? N
   N24        1.0     0.440059     0.446292     0.578689    Uiso  ? N
   N25        1.0     0.231344     0.852272     0.364874    Uiso  ? N
   N26        1.0     0.110278     0.745002     0.135155    Uiso  ? N
   N27        1.0     0.910318     0.863617     0.883988    Uiso  ? N
   N28        1.0     0.772322     0.762331     0.580588    Uiso  ? N
   N29        1.0     0.532483     0.886696     0.326750    Uiso  ? N
   N30        1.0     0.445978     0.756999     0.095488    Uiso  ? N
   N31        1.0     0.221306     0.873388     0.871263    Uiso  ? N
   N32        1.0     0.108344     0.767433     0.621787    Uiso  ? N
   N33        1.0     0.910743     0.858425     0.374767    Uiso  ? N
   N34        1.0     0.794524     0.748185     0.116246    Uiso  ? N
   N35        1.0     0.542125     0.881800     0.838140    Uiso  ? N
   N36        1.0     0.444241     0.759467     0.606108    Uiso  ? N
