
#======================================================================
# CRYSTAL DATA
#----------------------------------------------------------------------
data_VESTA_phase_1

_chemical_name_common                  'Mg   Al   Hf   N                      '
_cell_length_a                         9.834066
_cell_length_b                         9.855499
_cell_length_c                         9.987124
_cell_angle_alpha                      89.993797
_cell_angle_beta                       89.470680
_cell_angle_gamma                      60.138893
_cell_volume                           839.391623
_space_group_name_H-M_alt              'P 1'
_space_group_IT_number                 1

loop_
_space_group_symop_operation_xyz
   'x, y, z'

loop_
   _atom_site_label
   _atom_site_occupancy
   _atom_site_fract_x
   _atom_site_fract_y
   _atom_site_fract_z
   _atom_site_adp_type
   _atom_site_U_iso_or_equiv
   _atom_site_type_symbol
   Mg1        1.0     0.116792     0.095463     0.369750    Uiso  ? Mg
   Mg2        1.0     0.566185     0.524445     0.120014    Uiso  ? Mg
   Mg3        1.0     0.211713     0.874568     0.086268    Uiso  ? Mg
   Mg4        1.0     0.772111     0.757427     0.881228    Uiso  ? Mg
   Mg5        1.0     0.551423     0.884125     0.113899    Uiso  ? Mg
   Al1        1.0     0.221066     0.211096     0.135386    Uiso  ? Al
   Al2        1.0     0.899953     0.204633     0.630232    Uiso  ? Al
   Al3        1.0     0.428619     0.093896     0.381056    Uiso  ? Al
   Al4        1.0     0.530289     0.218300     0.139524    Uiso  ? Al
   Al5        1.0     0.117524     0.090762     0.884925    Uiso  ? Al
   Al6        1.0     0.217924     0.193527     0.629454    Uiso  ? Al
   Al7        1.0     0.899868     0.222782     0.132909    Uiso  ? Al
   Al8        1.0     0.436598     0.093719     0.886049    Uiso  ? Al
   Al9        1.0     0.117686     0.420454     0.389788    Uiso  ? Al
   Al10       1.0     0.224690     0.529669     0.139490    Uiso  ? Al
   Al11       1.0     0.778193     0.429730     0.881183    Uiso  ? Al
   Al12       1.0     0.881188     0.540438     0.628021    Uiso  ? Al
   Al13       1.0     0.438430     0.447143     0.382355    Uiso  ? Al
   Al14       1.0     0.220582     0.546187     0.622443    Uiso  ? Al
   Al15       1.0     0.770284     0.431172     0.387607    Uiso  ? Al
   Al16       1.0     0.897399     0.527418     0.134866    Uiso  ? Al
   Al17       1.0     0.438904     0.437642     0.888083    Uiso  ? Al
   Al18       1.0     0.552279     0.549513     0.639635    Uiso  ? Al
   Al19       1.0     0.122690     0.752732     0.320500    Uiso  ? Al
   Al20       1.0     0.898666     0.863606     0.569978    Uiso  ? Al
   Al21       1.0     0.438428     0.759217     0.300285    Uiso  ? Al
   Al22       1.0     0.119949     0.771776     0.814055    Uiso  ? Al
   Al23       1.0     0.233449     0.864820     0.560666    Uiso  ? Al
   Al24       1.0     0.909334     0.845779     0.078366    Uiso  ? Al
   Al25       1.0     0.441823     0.762286     0.894805    Uiso  ? Al
   Al26       1.0     0.546875     0.866746     0.642809    Uiso  ? Al
   Hf1        1.0     0.775380     0.100830     0.891050    Uiso  ? Hf
   Hf2        1.0     0.780906     0.097388     0.346485    Uiso  ? Hf
   Hf3        1.0     0.547467     0.209660     0.615247    Uiso  ? Hf
   Hf4        1.0     0.112312     0.429487     0.868569    Uiso  ? Hf
   Hf5        1.0     0.769760     0.756019     0.353242    Uiso  ? Hf
   N1         1.0     0.226558     0.217605     0.323535    Uiso  ? N
   N2         1.0     0.105747     0.116336     0.076931    Uiso  ? N
   N3         1.0     0.897570     0.209227     0.824810    Uiso  ? N
   N4         1.0     0.789596     0.091543     0.579321    Uiso  ? N
   N5         1.0     0.534492     0.217956     0.340940    Uiso  ? N
   N6         1.0     0.430826     0.116862     0.072194    Uiso  ? N
   N7         1.0     0.228112     0.192076     0.820338    Uiso  ? N
   N8         1.0     0.110607     0.091629     0.580480    Uiso  ? N
   N9         1.0     0.884104     0.226288     0.320502    Uiso  ? N
   N10        1.0     0.773474     0.097060     0.108488    Uiso  ? N
   N11        1.0     0.538797     0.214175     0.825483    Uiso  ? N
   N12        1.0     0.433854     0.084403     0.574167    Uiso  ? N
   N13        1.0     0.224649     0.530767     0.338577    Uiso  ? N
   N14        1.0     0.111985     0.429880     0.078505    Uiso  ? N
   N15        1.0     0.880551     0.533624     0.816158    Uiso  ? N
   N16        1.0     0.775594     0.425393     0.579738    Uiso  ? N
   N17        1.0     0.560264     0.536948     0.330239    Uiso  ? N
   N18        1.0     0.433615     0.420840     0.075626    Uiso  ? N
   N19        1.0     0.233861     0.545916     0.818173    Uiso  ? N
   N20        1.0     0.112079     0.426020     0.587200    Uiso  ? N
   N21        1.0     0.902013     0.513810     0.331143    Uiso  ? N
   N22        1.0     0.797301     0.423020     0.066974    Uiso  ? N
   N23        1.0     0.559285     0.532997     0.836627    Uiso  ? N
   N24        1.0     0.436822     0.447784     0.574350    Uiso  ? N
   N25        1.0     0.231838     0.852767     0.365562    Uiso  ? N
   N26        1.0     0.109938     0.746983     0.133233    Uiso  ? N
   N27        1.0     0.909746     0.863328     0.883135    Uiso  ? N
   N28        1.0     0.772381     0.761992     0.580819    Uiso  ? N
   N29        1.0     0.532410     0.886606     0.326525    Uiso  ? N
   N30        1.0     0.446286     0.756902     0.094990    Uiso  ? N
   N31        1.0     0.221631     0.873440     0.870803    Uiso  ? N
   N32        1.0     0.108172     0.768476     0.620061    Uiso  ? N
   N33        1.0     0.910835     0.857886     0.375279    Uiso  ? N
   N34        1.0     0.794433     0.748067     0.115948    Uiso  ? N
   N35        1.0     0.541882     0.882003     0.837688    Uiso  ? N
   N36        1.0     0.444308     0.759319     0.606133    Uiso  ? N
