
#======================================================================
# CRYSTAL DATA
#----------------------------------------------------------------------
data_VESTA_phase_1

_chemical_name_common                  'Mg   Al   Hf   N                      '
_cell_length_a                         9.851133
_cell_length_b                         9.861786
_cell_length_c                         9.978815
_cell_angle_alpha                      89.917679
_cell_angle_beta                       89.381874
_cell_angle_gamma                      60.094620
_cell_volume                           840.301035
_space_group_name_H-M_alt              'P 1'
_space_group_IT_number                 1

loop_
_space_group_symop_operation_xyz
   'x, y, z'

loop_
   _atom_site_label
   _atom_site_occupancy
   _atom_site_fract_x
   _atom_site_fract_y
   _atom_site_fract_z
   _atom_site_adp_type
   _atom_site_U_iso_or_equiv
   _atom_site_type_symbol
   Mg1        1.0     0.117271     0.094395     0.368744    Uiso  ? Mg
   Mg2        1.0     0.567482     0.524802     0.121379    Uiso  ? Mg
   Mg3        1.0     0.211596     0.875134     0.087745    Uiso  ? Mg
   Mg4        1.0     0.772054     0.758480     0.882216    Uiso  ? Mg
   Mg5        1.0     0.551075     0.884087     0.114163    Uiso  ? Mg
   Al1        1.0     0.220350     0.213380     0.134018    Uiso  ? Al
   Al2        1.0     0.900057     0.204530     0.630310    Uiso  ? Al
   Al3        1.0     0.428333     0.094107     0.381212    Uiso  ? Al
   Al4        1.0     0.529429     0.218529     0.141401    Uiso  ? Al
   Al5        1.0     0.117876     0.090208     0.885742    Uiso  ? Al
   Al6        1.0     0.218869     0.190300     0.629726    Uiso  ? Al
   Al7        1.0     0.900215     0.222951     0.133453    Uiso  ? Al
   Al8        1.0     0.436901     0.093190     0.886763    Uiso  ? Al
   Al9        1.0     0.114816     0.419300     0.389773    Uiso  ? Al
   Al10       1.0     0.221779     0.540177     0.077501    Uiso  ? Al
   Al11       1.0     0.778355     0.430091     0.881867    Uiso  ? Al
   Al12       1.0     0.878155     0.541483     0.628518    Uiso  ? Al
   Al13       1.0     0.440433     0.445889     0.382895    Uiso  ? Al
   Al14       1.0     0.215010     0.550847     0.576488    Uiso  ? Al
   Al15       1.0     0.770287     0.431035     0.387729    Uiso  ? Al
   Al16       1.0     0.899024     0.526999     0.133225    Uiso  ? Al
   Al17       1.0     0.446729     0.433787     0.886975    Uiso  ? Al
   Al18       1.0     0.552434     0.549695     0.640461    Uiso  ? Al
   Al19       1.0     0.125181     0.746614     0.319505    Uiso  ? Al
   Al20       1.0     0.899126     0.863448     0.570872    Uiso  ? Al
   Al21       1.0     0.437993     0.759483     0.301232    Uiso  ? Al
   Al22       1.0     0.122140     0.768636     0.815944    Uiso  ? Al
   Al23       1.0     0.233351     0.864217     0.561212    Uiso  ? Al
   Al24       1.0     0.907648     0.847826     0.080144    Uiso  ? Al
   Al25       1.0     0.441423     0.762641     0.895174    Uiso  ? Al
   Al26       1.0     0.546757     0.866799     0.643049    Uiso  ? Al
   Hf1        1.0     0.776232     0.100834     0.891962    Uiso  ? Hf
   Hf2        1.0     0.781281     0.097259     0.347300    Uiso  ? Hf
   Hf3        1.0     0.547629     0.209164     0.616172    Uiso  ? Hf
   Hf4        1.0     0.110982     0.428302     0.857330    Uiso  ? Hf
   Hf5        1.0     0.770032     0.756288     0.352828    Uiso  ? Hf
   N1         1.0     0.226423     0.218285     0.323061    Uiso  ? N
   N2         1.0     0.105957     0.116229     0.078004    Uiso  ? N
   N3         1.0     0.898062     0.209541     0.825088    Uiso  ? N
   N4         1.0     0.790015     0.091177     0.579921    Uiso  ? N
   N5         1.0     0.533948     0.218715     0.342028    Uiso  ? N
   N6         1.0     0.430972     0.117107     0.072869    Uiso  ? N
   N7         1.0     0.230011     0.188667     0.820183    Uiso  ? N
   N8         1.0     0.110468     0.090493     0.579823    Uiso  ? N
   N9         1.0     0.884206     0.226105     0.321109    Uiso  ? N
   N10        1.0     0.774422     0.095826     0.109863    Uiso  ? N
   N11        1.0     0.539745     0.213142     0.826207    Uiso  ? N
   N12        1.0     0.433622     0.084369     0.574039    Uiso  ? N
   N13        1.0     0.218678     0.538509     0.379412    Uiso  ? N
   N14        1.0     0.110864     0.428353     0.072468    Uiso  ? N
   N15        1.0     0.876698     0.536340     0.816196    Uiso  ? N
   N16        1.0     0.775385     0.425309     0.579562    Uiso  ? N
   N17        1.0     0.560166     0.537158     0.331358    Uiso  ? N
   N18        1.0     0.440168     0.418613     0.077277    Uiso  ? N
   N19        1.0     0.230221     0.552598     0.860193    Uiso  ? N
   N20        1.0     0.109884     0.423680     0.593644    Uiso  ? N
   N21        1.0     0.901809     0.513692     0.330662    Uiso  ? N
   N22        1.0     0.797498     0.423074     0.067659    Uiso  ? N
   N23        1.0     0.560828     0.533625     0.836580    Uiso  ? N
   N24        1.0     0.439129     0.446763     0.580339    Uiso  ? N
   N25        1.0     0.230978     0.851351     0.365062    Uiso  ? N
   N26        1.0     0.110453     0.744258     0.134425    Uiso  ? N
   N27        1.0     0.909696     0.864238     0.884423    Uiso  ? N
   N28        1.0     0.772312     0.762317     0.580417    Uiso  ? N
   N29        1.0     0.532443     0.886645     0.326858    Uiso  ? N
   N30        1.0     0.445930     0.756978     0.095638    Uiso  ? N
   N31        1.0     0.221431     0.873698     0.871397    Uiso  ? N
   N32        1.0     0.109171     0.765197     0.624565    Uiso  ? N
   N33        1.0     0.911659     0.857742     0.375064    Uiso  ? N
   N34        1.0     0.794366     0.748327     0.116518    Uiso  ? N
   N35        1.0     0.542161     0.881766     0.838054    Uiso  ? N
   N36        1.0     0.444268     0.759589     0.605901    Uiso  ? N
