
#======================================================================
# CRYSTAL DATA
#----------------------------------------------------------------------
data_VESTA_phase_1

_chemical_name_common                  'Mg   Al   Hf   N                      '
_cell_length_a                         9.841532
_cell_length_b                         9.862503
_cell_length_c                         10.056977
_cell_angle_alpha                      89.871216
_cell_angle_beta                       89.662086
_cell_angle_gamma                      59.956932
_cell_volume                           844.990084
_space_group_name_H-M_alt              'P 1'
_space_group_IT_number                 1

loop_
_space_group_symop_operation_xyz
   'x, y, z'

loop_
   _atom_site_label
   _atom_site_occupancy
   _atom_site_fract_x
   _atom_site_fract_y
   _atom_site_fract_z
   _atom_site_adp_type
   _atom_site_U_iso_or_equiv
   _atom_site_type_symbol
   Mg1        1.0     0.121019     0.090633     0.371741    Uiso  ? Mg
   Mg2        1.0     0.558111     0.533533     0.089767    Uiso  ? Mg
   Mg3        1.0     0.221618     0.868541     0.076870    Uiso  ? Mg
   Mg4        1.0     0.769390     0.758897     0.887409    Uiso  ? Mg
   Mg5        1.0     0.544751     0.879752     0.117749    Uiso  ? Mg
   Al1        1.0     0.220457     0.212652     0.132994    Uiso  ? Al
   Al2        1.0     0.900438     0.204347     0.633049    Uiso  ? Al
   Al3        1.0     0.428082     0.091955     0.384042    Uiso  ? Al
   Al4        1.0     0.534142     0.209587     0.142889    Uiso  ? Al
   Al5        1.0     0.115578     0.093000     0.885391    Uiso  ? Al
   Al6        1.0     0.217298     0.193277     0.632378    Uiso  ? Al
   Al7        1.0     0.901029     0.222733     0.133410    Uiso  ? Al
   Al8        1.0     0.438379     0.093441     0.884672    Uiso  ? Al
   Al9        1.0     0.116289     0.417916     0.389405    Uiso  ? Al
   Al10       1.0     0.227624     0.541498     0.073560    Uiso  ? Al
   Al11       1.0     0.777991     0.431929     0.880845    Uiso  ? Al
   Al12       1.0     0.881707     0.540838     0.630436    Uiso  ? Al
   Al13       1.0     0.433764     0.442519     0.324940    Uiso  ? Al
   Al14       1.0     0.216797     0.550846     0.570976    Uiso  ? Al
   Al15       1.0     0.777121     0.426328     0.387952    Uiso  ? Al
   Al16       1.0     0.899008     0.526960     0.133463    Uiso  ? Al
   Al17       1.0     0.441043     0.444662     0.817299    Uiso  ? Al
   Al18       1.0     0.554282     0.548314     0.591863    Uiso  ? Al
   Al19       1.0     0.127959     0.747150     0.319712    Uiso  ? Al
   Al20       1.0     0.900530     0.861750     0.570736    Uiso  ? Al
   Al21       1.0     0.436492     0.756134     0.310042    Uiso  ? Al
   Al22       1.0     0.117087     0.769357     0.820727    Uiso  ? Al
   Al23       1.0     0.226904     0.866869     0.569751    Uiso  ? Al
   Al24       1.0     0.906813     0.849416     0.082329    Uiso  ? Al
   Al25       1.0     0.437488     0.764762     0.826729    Uiso  ? Al
   Al26       1.0     0.553588     0.870905     0.636620    Uiso  ? Al
   Hf1        1.0     0.771939     0.104393     0.893484    Uiso  ? Hf
   Hf2        1.0     0.785559     0.095109     0.349974    Uiso  ? Hf
   Hf3        1.0     0.548166     0.208658     0.605929    Uiso  ? Hf
   Hf4        1.0     0.112431     0.429111     0.861702    Uiso  ? Hf
   Hf5        1.0     0.772427     0.755504     0.350644    Uiso  ? Hf
   N1         1.0     0.227595     0.216913     0.321258    Uiso  ? N
   N2         1.0     0.106373     0.114490     0.075384    Uiso  ? N
   N3         1.0     0.895521     0.210896     0.825610    Uiso  ? N
   N4         1.0     0.793035     0.090191     0.578938    Uiso  ? N
   N5         1.0     0.538861     0.210339     0.354421    Uiso  ? N
   N6         1.0     0.432478     0.114367     0.070783    Uiso  ? N
   N7         1.0     0.228721     0.190616     0.821295    Uiso  ? N
   N8         1.0     0.110179     0.092160     0.583084    Uiso  ? N
   N9         1.0     0.887892     0.224117     0.319264    Uiso  ? N
   N10        1.0     0.771077     0.097122     0.111180    Uiso  ? N
   N11        1.0     0.539097     0.212917     0.821829    Uiso  ? N
   N12        1.0     0.430573     0.086056     0.574893    Uiso  ? N
   N13        1.0     0.221450     0.537406     0.383219    Uiso  ? N
   N14        1.0     0.111087     0.429207     0.072363    Uiso  ? N
   N15        1.0     0.878744     0.537128     0.817038    Uiso  ? N
   N16        1.0     0.783188     0.422512     0.578850    Uiso  ? N
   N17        1.0     0.554862     0.537634     0.375027    Uiso  ? N
   N18        1.0     0.432760     0.423486     0.136517    Uiso  ? N
   N19        1.0     0.233668     0.554463     0.877693    Uiso  ? N
   N20        1.0     0.111296     0.424069     0.593001    Uiso  ? N
   N21        1.0     0.903226     0.512442     0.329141    Uiso  ? N
   N22        1.0     0.796577     0.423686     0.068058    Uiso  ? N
   N23        1.0     0.561867     0.536773     0.845379    Uiso  ? N
   N24        1.0     0.429367     0.450805     0.623732    Uiso  ? N
   N25        1.0     0.231704     0.847988     0.380870    Uiso  ? N
   N26        1.0     0.111096     0.746520     0.135680    Uiso  ? N
   N27        1.0     0.906687     0.866455     0.888448    Uiso  ? N
   N28        1.0     0.774658     0.760458     0.578273    Uiso  ? N
   N29        1.0     0.534098     0.883378     0.338669    Uiso  ? N
   N30        1.0     0.441502     0.755363     0.126785    Uiso  ? N
   N31        1.0     0.220456     0.875559     0.865005    Uiso  ? N
   N32        1.0     0.108057     0.761624     0.631147    Uiso  ? N
   N33        1.0     0.914873     0.855775     0.376576    Uiso  ? N
   N34        1.0     0.792013     0.750231     0.118028    Uiso  ? N
   N35        1.0     0.543800     0.884925     0.830209    Uiso  ? N
   N36        1.0     0.440623     0.763032     0.629171    Uiso  ? N
