
#======================================================================
# CRYSTAL DATA
#----------------------------------------------------------------------
data_VESTA_phase_1

_chemical_name_common                  'Mg   Al   Hf   N                      '
_cell_length_a                         9.768099
_cell_length_b                         9.784710
_cell_length_c                         10.257614
_cell_angle_alpha                      89.752014
_cell_angle_beta                       89.531242
_cell_angle_gamma                      60.272900
_cell_volume                           851.350023
_space_group_name_H-M_alt              'P 1'
_space_group_IT_number                 1

loop_
_space_group_symop_operation_xyz
   'x, y, z'

loop_
   _atom_site_label
   _atom_site_occupancy
   _atom_site_fract_x
   _atom_site_fract_y
   _atom_site_fract_z
   _atom_site_adp_type
   _atom_site_U_iso_or_equiv
   _atom_site_type_symbol
   Mg1        1.0     0.115118     0.090350     0.372185    Uiso  ? Mg
   Mg2        1.0     0.556272     0.543301     0.070067    Uiso  ? Mg
   Mg3        1.0     0.226039     0.867734     0.077222    Uiso  ? Mg
   Mg4        1.0     0.764895     0.754523     0.896289    Uiso  ? Mg
   Mg5        1.0     0.544973     0.884693     0.131519    Uiso  ? Mg
   Al1        1.0     0.223259     0.210950     0.138262    Uiso  ? Al
   Al2        1.0     0.896179     0.203018     0.600706    Uiso  ? Al
   Al3        1.0     0.428225     0.095225     0.390983    Uiso  ? Al
   Al4        1.0     0.534522     0.224250     0.059846    Uiso  ? Al
   Al5        1.0     0.121105     0.091528     0.888156    Uiso  ? Al
   Al6        1.0     0.215445     0.195706     0.635852    Uiso  ? Al
   Al7        1.0     0.894077     0.220415     0.081032    Uiso  ? Al
   Al8        1.0     0.434934     0.088020     0.883999    Uiso  ? Al
   Al9        1.0     0.117122     0.416063     0.392738    Uiso  ? Al
   Al10       1.0     0.228209     0.545096     0.078109    Uiso  ? Al
   Al11       1.0     0.766228     0.434110     0.813727    Uiso  ? Al
   Al12       1.0     0.886715     0.541405     0.631491    Uiso  ? Al
   Al13       1.0     0.436711     0.434214     0.320724    Uiso  ? Al
   Al14       1.0     0.219382     0.548386     0.570482    Uiso  ? Al
   Al15       1.0     0.770323     0.424254     0.314181    Uiso  ? Al
   Al16       1.0     0.901853     0.532482     0.142914    Uiso  ? Al
   Al17       1.0     0.440902     0.448865     0.818623    Uiso  ? Al
   Al18       1.0     0.554551     0.546531     0.564822    Uiso  ? Al
   Al19       1.0     0.124780     0.752158     0.323814    Uiso  ? Al
   Al20       1.0     0.901689     0.864324     0.575702    Uiso  ? Al
   Al21       1.0     0.436039     0.756733     0.314673    Uiso  ? Al
   Al22       1.0     0.121938     0.762686     0.820432    Uiso  ? Al
   Al23       1.0     0.228406     0.864819     0.570406    Uiso  ? Al
   Al24       1.0     0.909774     0.849390     0.073446    Uiso  ? Al
   Al25       1.0     0.438416     0.762491     0.818551    Uiso  ? Al
   Al26       1.0     0.556369     0.869093     0.635982    Uiso  ? Al
   Hf1        1.0     0.786859     0.086433     0.851266    Uiso  ? Hf
   Hf2        1.0     0.769234     0.095122     0.304943    Uiso  ? Hf
   Hf3        1.0     0.550913     0.210178     0.595709    Uiso  ? Hf
   Hf4        1.0     0.110639     0.429222     0.873127    Uiso  ? Hf
   Hf5        1.0     0.775695     0.756345     0.360944    Uiso  ? Hf
   N1         1.0     0.229207     0.214917     0.323167    Uiso  ? N
   N2         1.0     0.110196     0.113801     0.076007    Uiso  ? N
   N3         1.0     0.896889     0.218147     0.861578    Uiso  ? N
   N4         1.0     0.794995     0.079170     0.637323    Uiso  ? N
   N5         1.0     0.542185     0.215981     0.387682    Uiso  ? N
   N6         1.0     0.429658     0.112049     0.066343    Uiso  ? N
   N7         1.0     0.227872     0.192850     0.819999    Uiso  ? N
   N8         1.0     0.110701     0.090709     0.586009    Uiso  ? N
   N9         1.0     0.875608     0.212251     0.354939    Uiso  ? N
   N10        1.0     0.772382     0.099989     0.091460    Uiso  ? N
   N11        1.0     0.535967     0.222971     0.856022    Uiso  ? N
   N12        1.0     0.430304     0.086577     0.581060    Uiso  ? N
   N13        1.0     0.222875     0.538209     0.384542    Uiso  ? N
   N14        1.0     0.111030     0.430252     0.078270    Uiso  ? N
   N15        1.0     0.881011     0.539146     0.818128    Uiso  ? N
   N16        1.0     0.772132     0.423757     0.621774    Uiso  ? N
   N17        1.0     0.556633     0.535484     0.378520    Uiso  ? N
   N18        1.0     0.437443     0.420252     0.136273    Uiso  ? N
   N19        1.0     0.235626     0.552929     0.884184    Uiso  ? N
   N20        1.0     0.112093     0.422067     0.589843    Uiso  ? N
   N21        1.0     0.905321     0.513999     0.336504    Uiso  ? N
   N22        1.0     0.787117     0.427191     0.127460    Uiso  ? N
   N23        1.0     0.556506     0.543477     0.866326    Uiso  ? N
   N24        1.0     0.431139     0.450676     0.631060    Uiso  ? N
   N25        1.0     0.233397     0.847621     0.386725    Uiso  ? N
   N26        1.0     0.109145     0.750719     0.142116    Uiso  ? N
   N27        1.0     0.915521     0.849548     0.889722    Uiso  ? N
   N28        1.0     0.777195     0.758690     0.578572    Uiso  ? N
   N29        1.0     0.537051     0.885551     0.345582    Uiso  ? N
   N30        1.0     0.442106     0.756933     0.137702    Uiso  ? N
   N31        1.0     0.223234     0.873534     0.866048    Uiso  ? N
   N32        1.0     0.111663     0.757758     0.633521    Uiso  ? N
   N33        1.0     0.908061     0.872425     0.386925    Uiso  ? N
   N34        1.0     0.791867     0.755095     0.123271    Uiso  ? N
   N35        1.0     0.545657     0.883198     0.823922    Uiso  ? N
   N36        1.0     0.444789     0.756339     0.626713    Uiso  ? N
