
#======================================================================
# CRYSTAL DATA
#----------------------------------------------------------------------
data_VESTA_phase_1

_chemical_name_common                  'Mg   Al   Hf   N                      '
_cell_length_a                         9.804818
_cell_length_b                         9.816926
_cell_length_c                         10.151561
_cell_angle_alpha                      89.879448
_cell_angle_beta                       89.513939
_cell_angle_gamma                      59.908497
_cell_volume                           845.396344
_space_group_name_H-M_alt              'P 1'
_space_group_IT_number                 1

loop_
_space_group_symop_operation_xyz
   'x, y, z'

loop_
   _atom_site_label
   _atom_site_occupancy
   _atom_site_fract_x
   _atom_site_fract_y
   _atom_site_fract_z
   _atom_site_adp_type
   _atom_site_U_iso_or_equiv
   _atom_site_type_symbol
   Mg1        1.0     0.117277     0.086290     0.322550    Uiso  ? Mg
   Mg2        1.0     0.557482     0.538811     0.075542    Uiso  ? Mg
   Mg3        1.0     0.225786     0.868319     0.075856    Uiso  ? Mg
   Mg4        1.0     0.776540     0.761234     0.822687    Uiso  ? Mg
   Mg5        1.0     0.549771     0.876382     0.118974    Uiso  ? Mg
   Al1        1.0     0.222178     0.216289     0.134547    Uiso  ? Al
   Al2        1.0     0.895386     0.205584     0.572473    Uiso  ? Al
   Al3        1.0     0.430223     0.093419     0.388840    Uiso  ? Al
   Al4        1.0     0.537060     0.220742     0.065186    Uiso  ? Al
   Al5        1.0     0.118035     0.087205     0.852815    Uiso  ? Al
   Al6        1.0     0.216298     0.195479     0.638081    Uiso  ? Al
   Al7        1.0     0.899879     0.221930     0.069935    Uiso  ? Al
   Al8        1.0     0.435785     0.087044     0.886416    Uiso  ? Al
   Al9        1.0     0.120940     0.415955     0.391840    Uiso  ? Al
   Al10       1.0     0.225551     0.543550     0.077039    Uiso  ? Al
   Al11       1.0     0.768706     0.435789     0.818634    Uiso  ? Al
   Al12       1.0     0.884423     0.533353     0.579748    Uiso  ? Al
   Al13       1.0     0.437533     0.433449     0.322360    Uiso  ? Al
   Al14       1.0     0.219601     0.550834     0.575133    Uiso  ? Al
   Al15       1.0     0.776920     0.424919     0.322717    Uiso  ? Al
   Al16       1.0     0.884407     0.538789     0.073015    Uiso  ? Al
   Al17       1.0     0.442004     0.448395     0.821326    Uiso  ? Al
   Al18       1.0     0.553698     0.546109     0.569083    Uiso  ? Al
   Al19       1.0     0.123601     0.753377     0.323571    Uiso  ? Al
   Al20       1.0     0.899916     0.866031     0.577598    Uiso  ? Al
   Al21       1.0     0.437245     0.756143     0.317776    Uiso  ? Al
   Al22       1.0     0.123232     0.763478     0.821136    Uiso  ? Al
   Al23       1.0     0.223219     0.870944     0.571151    Uiso  ? Al
   Al24       1.0     0.905765     0.847476     0.071965    Uiso  ? Al
   Al25       1.0     0.440405     0.760437     0.820905    Uiso  ? Al
   Al26       1.0     0.548236     0.871527     0.629014    Uiso  ? Al
   Hf1        1.0     0.786544     0.090948     0.849780    Uiso  ? Hf
   Hf2        1.0     0.774448     0.098922     0.310244    Uiso  ? Hf
   Hf3        1.0     0.549407     0.209429     0.598541    Uiso  ? Hf
   Hf4        1.0     0.112223     0.432123     0.859591    Uiso  ? Hf
   Hf5        1.0     0.780065     0.753263     0.345525    Uiso  ? Hf
   N1         1.0     0.230524     0.217050     0.324520    Uiso  ? N
   N2         1.0     0.110320     0.108824     0.103694    Uiso  ? N
   N3         1.0     0.895106     0.221168     0.880229    Uiso  ? N
   N4         1.0     0.794013     0.083929     0.635576    Uiso  ? N
   N5         1.0     0.545078     0.212913     0.386516    Uiso  ? N
   N6         1.0     0.433299     0.108993     0.069968    Uiso  ? N
   N7         1.0     0.229363     0.192805     0.825417    Uiso  ? N
   N8         1.0     0.105737     0.089425     0.621688    Uiso  ? N
   N9         1.0     0.877750     0.214738     0.385012    Uiso  ? N
   N10        1.0     0.772320     0.099184     0.096388    Uiso  ? N
   N11        1.0     0.536440     0.221188     0.854783    Uiso  ? N
   N12        1.0     0.427121     0.088890     0.579984    Uiso  ? N
   N13        1.0     0.221752     0.539061     0.387362    Uiso  ? N
   N14        1.0     0.112631     0.429848     0.073140    Uiso  ? N
   N15        1.0     0.872145     0.537422     0.880217    Uiso  ? N
   N16        1.0     0.775100     0.425185     0.629654    Uiso  ? N
   N17        1.0     0.557584     0.532989     0.380994    Uiso  ? N
   N18        1.0     0.435830     0.420003     0.136840    Uiso  ? N
   N19        1.0     0.235880     0.554986     0.882886    Uiso  ? N
   N20        1.0     0.113798     0.425079     0.607733    Uiso  ? N
   N21        1.0     0.898327     0.513075     0.390840    Uiso  ? N
   N22        1.0     0.792200     0.423703     0.138534    Uiso  ? N
   N23        1.0     0.557096     0.541321     0.868463    Uiso  ? N
   N24        1.0     0.432391     0.449996     0.631758    Uiso  ? N
   N25        1.0     0.228663     0.853883     0.385884    Uiso  ? N
   N26        1.0     0.107084     0.751026     0.140423    Uiso  ? N
   N27        1.0     0.913491     0.852812     0.885940    Uiso  ? N
   N28        1.0     0.779445     0.760081     0.601428    Uiso  ? N
   N29        1.0     0.540395     0.879680     0.354047    Uiso  ? N
   N30        1.0     0.443018     0.754993     0.139045    Uiso  ? N
   N31        1.0     0.224794     0.871110     0.868681    Uiso  ? N
   N32        1.0     0.110780     0.760938     0.633200    Uiso  ? N
   N33        1.0     0.904642     0.873040     0.387983    Uiso  ? N
   N34        1.0     0.796651     0.749722     0.135904    Uiso  ? N
   N35        1.0     0.540893     0.884451     0.822437    Uiso  ? N
   N36        1.0     0.440922     0.756891     0.626201    Uiso  ? N
