
#======================================================================
# CRYSTAL DATA
#----------------------------------------------------------------------
data_VESTA_phase_1

_chemical_name_common                  'Mg   Al   Hf   N                      '
_cell_length_a                         9.805190
_cell_length_b                         9.817354
_cell_length_c                         10.150021
_cell_angle_alpha                      89.882568
_cell_angle_beta                       89.512222
_cell_angle_gamma                      59.915794
_cell_volume                           845.399017
_space_group_name_H-M_alt              'P 1'
_space_group_IT_number                 1

loop_
_space_group_symop_operation_xyz
   'x, y, z'

loop_
   _atom_site_label
   _atom_site_occupancy
   _atom_site_fract_x
   _atom_site_fract_y
   _atom_site_fract_z
   _atom_site_adp_type
   _atom_site_U_iso_or_equiv
   _atom_site_type_symbol
   Mg1        1.0     0.117431     0.086270     0.324958    Uiso  ? Mg
   Mg2        1.0     0.557530     0.538848     0.075400    Uiso  ? Mg
   Mg3        1.0     0.226598     0.866274     0.076709    Uiso  ? Mg
   Mg4        1.0     0.776539     0.761294     0.822596    Uiso  ? Mg
   Mg5        1.0     0.549970     0.876417     0.118897    Uiso  ? Mg
   Al1        1.0     0.222611     0.216693     0.134066    Uiso  ? Al
   Al2        1.0     0.895732     0.205500     0.571853    Uiso  ? Al
   Al3        1.0     0.429842     0.093468     0.388970    Uiso  ? Al
   Al4        1.0     0.537200     0.220832     0.064942    Uiso  ? Al
   Al5        1.0     0.119479     0.088354     0.867268    Uiso  ? Al
   Al6        1.0     0.215582     0.194203     0.638770    Uiso  ? Al
   Al7        1.0     0.897724     0.222691     0.070426    Uiso  ? Al
   Al8        1.0     0.436213     0.087126     0.886069    Uiso  ? Al
   Al9        1.0     0.120973     0.415570     0.391985    Uiso  ? Al
   Al10       1.0     0.225539     0.543408     0.076848    Uiso  ? Al
   Al11       1.0     0.768746     0.435763     0.818482    Uiso  ? Al
   Al12       1.0     0.884503     0.533214     0.579831    Uiso  ? Al
   Al13       1.0     0.437452     0.433476     0.322380    Uiso  ? Al
   Al14       1.0     0.219542     0.550815     0.575220    Uiso  ? Al
   Al15       1.0     0.776594     0.425167     0.322776    Uiso  ? Al
   Al16       1.0     0.884552     0.538860     0.072836    Uiso  ? Al
   Al17       1.0     0.442032     0.448516     0.821271    Uiso  ? Al
   Al18       1.0     0.553617     0.546177     0.569154    Uiso  ? Al
   Al19       1.0     0.123535     0.752975     0.323608    Uiso  ? Al
   Al20       1.0     0.900023     0.865969     0.577559    Uiso  ? Al
   Al21       1.0     0.437498     0.755890     0.317812    Uiso  ? Al
   Al22       1.0     0.123303     0.763884     0.821002    Uiso  ? Al
   Al23       1.0     0.222948     0.871559     0.570690    Uiso  ? Al
   Al24       1.0     0.905769     0.847411     0.071857    Uiso  ? Al
   Al25       1.0     0.440174     0.760718     0.820737    Uiso  ? Al
   Al26       1.0     0.548124     0.871613     0.628920    Uiso  ? Al
   Hf1        1.0     0.787063     0.090918     0.848969    Uiso  ? Hf
   Hf2        1.0     0.773859     0.098672     0.310397    Uiso  ? Hf
   Hf3        1.0     0.549126     0.209521     0.598521    Uiso  ? Hf
   Hf4        1.0     0.112167     0.432418     0.858851    Uiso  ? Hf
   Hf5        1.0     0.780070     0.753136     0.345673    Uiso  ? Hf
   N1         1.0     0.230288     0.216858     0.323464    Uiso  ? N
   N2         1.0     0.110911     0.109044     0.097646    Uiso  ? N
   N3         1.0     0.894530     0.221658     0.880604    Uiso  ? N
   N4         1.0     0.793862     0.084015     0.635114    Uiso  ? N
   N5         1.0     0.544547     0.213085     0.386512    Uiso  ? N
   N6         1.0     0.433571     0.108940     0.069764    Uiso  ? N
   N7         1.0     0.229174     0.192587     0.825895    Uiso  ? N
   N8         1.0     0.106105     0.089662     0.615526    Uiso  ? N
   N9         1.0     0.877149     0.214868     0.383722    Uiso  ? N
   N10        1.0     0.772475     0.099339     0.096672    Uiso  ? N
   N11        1.0     0.536763     0.221174     0.854764    Uiso  ? N
   N12        1.0     0.426842     0.089073     0.580197    Uiso  ? N
   N13        1.0     0.221710     0.538732     0.387382    Uiso  ? N
   N14        1.0     0.112639     0.429913     0.072855    Uiso  ? N
   N15        1.0     0.872185     0.537460     0.880121    Uiso  ? N
   N16        1.0     0.775020     0.425122     0.629459    Uiso  ? N
   N17        1.0     0.557520     0.532994     0.381011    Uiso  ? N
   N18        1.0     0.435850     0.420038     0.136761    Uiso  ? N
   N19        1.0     0.235876     0.555143     0.882788    Uiso  ? N
   N20        1.0     0.113890     0.424868     0.608097    Uiso  ? N
   N21        1.0     0.898397     0.512914     0.390871    Uiso  ? N
   N22        1.0     0.792228     0.424031     0.138714    Uiso  ? N
   N23        1.0     0.557095     0.541474     0.868383    Uiso  ? N
   N24        1.0     0.432331     0.450050     0.631748    Uiso  ? N
   N25        1.0     0.228977     0.853110     0.385025    Uiso  ? N
   N26        1.0     0.106989     0.750794     0.140448    Uiso  ? N
   N27        1.0     0.913511     0.852945     0.885923    Uiso  ? N
   N28        1.0     0.779454     0.760035     0.601351    Uiso  ? N
   N29        1.0     0.540373     0.879754     0.354098    Uiso  ? N
   N30        1.0     0.443557     0.754851     0.139097    Uiso  ? N
   N31        1.0     0.224841     0.871274     0.869145    Uiso  ? N
   N32        1.0     0.110847     0.760976     0.633111    Uiso  ? N
   N33        1.0     0.904751     0.872783     0.387965    Uiso  ? N
   N34        1.0     0.796700     0.749736     0.135925    Uiso  ? N
   N35        1.0     0.540958     0.884480     0.822416    Uiso  ? N
   N36        1.0     0.440795     0.756974     0.626084    Uiso  ? N
