
#======================================================================
# CRYSTAL DATA
#----------------------------------------------------------------------
data_VESTA_phase_1

_chemical_name_common                  'Mg   Al   Hf   N                      '
_cell_length_a                         9.764341
_cell_length_b                         9.765684
_cell_length_c                         10.113423
_cell_angle_alpha                      89.939713
_cell_angle_beta                       89.661797
_cell_angle_gamma                      60.122810
_cell_volume                           836.184221
_space_group_name_H-M_alt              'P 1'
_space_group_IT_number                 1

loop_
_space_group_symop_operation_xyz
   'x, y, z'

loop_
   _atom_site_label
   _atom_site_occupancy
   _atom_site_fract_x
   _atom_site_fract_y
   _atom_site_fract_z
   _atom_site_adp_type
   _atom_site_U_iso_or_equiv
   _atom_site_type_symbol
   Mg1        1.0     0.118221     0.088578     0.316542    Uiso  ? Mg
   Mg2        1.0     0.555797     0.541781     0.068018    Uiso  ? Mg
   Mg3        1.0     0.225010     0.872748     0.064704    Uiso  ? Mg
   Mg4        1.0     0.773004     0.758632     0.808068    Uiso  ? Mg
   Mg5        1.0     0.555084     0.864579     0.065360    Uiso  ? Mg
   Al1        1.0     0.217592     0.203431     0.071916    Uiso  ? Al
   Al2        1.0     0.893680     0.207833     0.568398    Uiso  ? Al
   Al3        1.0     0.433962     0.098203     0.321524    Uiso  ? Al
   Al4        1.0     0.536413     0.220037     0.061766    Uiso  ? Al
   Al5        1.0     0.119840     0.087628     0.810457    Uiso  ? Al
   Al6        1.0     0.215427     0.206411     0.557740    Uiso  ? Al
   Al7        1.0     0.902130     0.218378     0.059539    Uiso  ? Al
   Al8        1.0     0.438639     0.087937     0.850917    Uiso  ? Al
   Al9        1.0     0.117290     0.422735     0.307555    Uiso  ? Al
   Al10       1.0     0.225196     0.542937     0.073540    Uiso  ? Al
   Al11       1.0     0.771216     0.435380     0.812760    Uiso  ? Al
   Al12       1.0     0.890300     0.531651     0.562915    Uiso  ? Al
   Al13       1.0     0.439103     0.435915     0.313572    Uiso  ? Al
   Al14       1.0     0.215701     0.546238     0.558873    Uiso  ? Al
   Al15       1.0     0.776586     0.425397     0.314263    Uiso  ? Al
   Al16       1.0     0.887041     0.536062     0.069780    Uiso  ? Al
   Al17       1.0     0.439835     0.447421     0.815752    Uiso  ? Al
   Al18       1.0     0.554177     0.545157     0.564866    Uiso  ? Al
   Al19       1.0     0.124066     0.755552     0.314108    Uiso  ? Al
   Al20       1.0     0.899676     0.865073     0.569372    Uiso  ? Al
   Al21       1.0     0.436007     0.759476     0.313128    Uiso  ? Al
   Al22       1.0     0.122894     0.760509     0.813325    Uiso  ? Al
   Al23       1.0     0.224423     0.868228     0.566963    Uiso  ? Al
   Al24       1.0     0.905394     0.847887     0.061717    Uiso  ? Al
   Al25       1.0     0.443421     0.763074     0.811681    Uiso  ? Al
   Al26       1.0     0.545717     0.871941     0.571581    Uiso  ? Al
   Hf1        1.0     0.785522     0.089898     0.844440    Uiso  ? Hf
   Hf2        1.0     0.780181     0.098910     0.300306    Uiso  ? Hf
   Hf3        1.0     0.550183     0.207354     0.584561    Uiso  ? Hf
   Hf4        1.0     0.112105     0.430904     0.827691    Uiso  ? Hf
   Hf5        1.0     0.776357     0.756705     0.332026    Uiso  ? Hf
   N1         1.0     0.224611     0.216956     0.372228    Uiso  ? N
   N2         1.0     0.103742     0.106259     0.116533    Uiso  ? N
   N3         1.0     0.900264     0.217129     0.868257    Uiso  ? N
   N4         1.0     0.795224     0.083249     0.629133    Uiso  ? N
   N5         1.0     0.547314     0.209733     0.373136    Uiso  ? N
   N6         1.0     0.437221     0.107269     0.107272    Uiso  ? N
   N7         1.0     0.222175     0.195357     0.876065    Uiso  ? N
   N8         1.0     0.110039     0.096174     0.618307    Uiso  ? N
   N9         1.0     0.877745     0.217118     0.382413    Uiso  ? N
   N10        1.0     0.774561     0.097856     0.086152    Uiso  ? N
   N11        1.0     0.533842     0.221270     0.858373    Uiso  ? N
   N12        1.0     0.429416     0.091282     0.613475    Uiso  ? N
   N13        1.0     0.220243     0.537723     0.371004    Uiso  ? N
   N14        1.0     0.111744     0.429504     0.112695    Uiso  ? N
   N15        1.0     0.879660     0.533315     0.879928    Uiso  ? N
   N16        1.0     0.777341     0.427844     0.622261    Uiso  ? N
   N17        1.0     0.558151     0.534486     0.375655    Uiso  ? N
   N18        1.0     0.437658     0.422580     0.128573    Uiso  ? N
   N19        1.0     0.232504     0.550515     0.881236    Uiso  ? N
   N20        1.0     0.109533     0.429717     0.618657    Uiso  ? N
   N21        1.0     0.901355     0.516096     0.374140    Uiso  ? N
   N22        1.0     0.790351     0.421278     0.129166    Uiso  ? N
   N23        1.0     0.557179     0.541059     0.859126    Uiso  ? N
   N24        1.0     0.428988     0.449063     0.624216    Uiso  ? N
   N25        1.0     0.227862     0.855504     0.382160    Uiso  ? N
   N26        1.0     0.106763     0.753771     0.130379    Uiso  ? N
   N27        1.0     0.912509     0.850709     0.875132    Uiso  ? N
   N28        1.0     0.778597     0.758850     0.591963    Uiso  ? N
   N29        1.0     0.535414     0.882558     0.377940    Uiso  ? N
   N30        1.0     0.443340     0.759384     0.135585    Uiso  ? N
   N31        1.0     0.223349     0.873310     0.853833    Uiso  ? N
   N32        1.0     0.111639     0.756886     0.623769    Uiso  ? N
   N33        1.0     0.904468     0.872610     0.378767    Uiso  ? N
   N34        1.0     0.793739     0.751795     0.126949    Uiso  ? N
   N35        1.0     0.545319     0.875463     0.857219    Uiso  ? N
   N36        1.0     0.443826     0.758690     0.619902    Uiso  ? N
