
#======================================================================
# CRYSTAL DATA
#----------------------------------------------------------------------
data_VESTA_phase_1

_chemical_name_common                  'Mg   Al   Hf   N                      '
_cell_length_a                         9.794364
_cell_length_b                         9.797496
_cell_length_c                         10.125267
_cell_angle_alpha                      90.166512
_cell_angle_beta                       89.885994
_cell_angle_gamma                      60.052292
_cell_volume                           841.883091
_space_group_name_H-M_alt              'P 1'
_space_group_IT_number                 1

loop_
_space_group_symop_operation_xyz
   'x, y, z'

loop_
   _atom_site_label
   _atom_site_occupancy
   _atom_site_fract_x
   _atom_site_fract_y
   _atom_site_fract_z
   _atom_site_adp_type
   _atom_site_U_iso_or_equiv
   _atom_site_type_symbol
   Mg1        1.0     0.120214     0.089745     0.389516    Uiso  ? Mg
   Mg2        1.0     0.556919     0.541926     0.140527    Uiso  ? Mg
   Mg3        1.0     0.231637     0.871218     0.136501    Uiso  ? Mg
   Mg4        1.0     0.764638     0.759432     0.901119    Uiso  ? Mg
   Mg5        1.0     0.541665     0.876159     0.137062    Uiso  ? Mg
   Al1        1.0     0.222208     0.205605     0.144013    Uiso  ? Al
   Al2        1.0     0.897658     0.208705     0.643750    Uiso  ? Al
   Al3        1.0     0.429024     0.095752     0.389441    Uiso  ? Al
   Al4        1.0     0.533952     0.214788     0.147050    Uiso  ? Al
   Al5        1.0     0.118058     0.089434     0.891991    Uiso  ? Al
   Al6        1.0     0.216483     0.200976     0.640406    Uiso  ? Al
   Al7        1.0     0.901326     0.217992     0.141392    Uiso  ? Al
   Al8        1.0     0.437977     0.089496     0.895718    Uiso  ? Al
   Al9        1.0     0.119214     0.419105     0.394818    Uiso  ? Al
   Al10       1.0     0.226602     0.528978     0.146156    Uiso  ? Al
   Al11       1.0     0.773425     0.433068     0.891917    Uiso  ? Al
   Al12       1.0     0.883732     0.540179     0.639511    Uiso  ? Al
   Al13       1.0     0.438087     0.442516     0.389858    Uiso  ? Al
   Al14       1.0     0.219994     0.544474     0.634950    Uiso  ? Al
   Al15       1.0     0.775824     0.427505     0.396249    Uiso  ? Al
   Al16       1.0     0.894829     0.526762     0.145085    Uiso  ? Al
   Al17       1.0     0.440906     0.440624     0.899281    Uiso  ? Al
   Al18       1.0     0.555796     0.544168     0.641709    Uiso  ? Al
   Al19       1.0     0.125692     0.751762     0.326127    Uiso  ? Al
   Al20       1.0     0.895422     0.865063     0.593521    Uiso  ? Al
   Al21       1.0     0.439594     0.758027     0.398106    Uiso  ? Al
   Al22       1.0     0.114296     0.768134     0.827059    Uiso  ? Al
   Al23       1.0     0.223905     0.878547     0.633744    Uiso  ? Al
   Al24       1.0     0.902409     0.854342     0.106304    Uiso  ? Al
   Al25       1.0     0.441627     0.764593     0.890116    Uiso  ? Al
   Al26       1.0     0.551315     0.869626     0.643770    Uiso  ? Al
   Hf1        1.0     0.775175     0.100579     0.903671    Uiso  ? Hf
   Hf2        1.0     0.781573     0.099565     0.364393    Uiso  ? Hf
   Hf3        1.0     0.546808     0.210467     0.630953    Uiso  ? Hf
   Hf4        1.0     0.110537     0.430228     0.885076    Uiso  ? Hf
   Hf5        1.0     0.773386     0.754882     0.363461    Uiso  ? Hf
   N1         1.0     0.226129     0.214089     0.330144    Uiso  ? N
   N2         1.0     0.107912     0.108820     0.078897    Uiso  ? N
   N3         1.0     0.895191     0.210729     0.833922    Uiso  ? N
   N4         1.0     0.788993     0.093107     0.586835    Uiso  ? N
   N5         1.0     0.535249     0.216125     0.344426    Uiso  ? N
   N6         1.0     0.434122     0.110237     0.080912    Uiso  ? N
   N7         1.0     0.227550     0.194677     0.829389    Uiso  ? N
   N8         1.0     0.108415     0.097563     0.593913    Uiso  ? N
   N9         1.0     0.888835     0.223657     0.326746    Uiso  ? N
   N10        1.0     0.776259     0.093306     0.117573    Uiso  ? N
   N11        1.0     0.538433     0.214515     0.836862    Uiso  ? N
   N12        1.0     0.431722     0.089238     0.580211    Uiso  ? N
   N13        1.0     0.225620     0.528896     0.340615    Uiso  ? N
   N14        1.0     0.111367     0.427363     0.090371    Uiso  ? N
   N15        1.0     0.879493     0.534720     0.825763    Uiso  ? N
   N16        1.0     0.778280     0.425737     0.586144    Uiso  ? N
   N17        1.0     0.560206     0.537861     0.349508    Uiso  ? N
   N18        1.0     0.437774     0.420296     0.084376    Uiso  ? N
   N19        1.0     0.234152     0.543548     0.828792    Uiso  ? N
   N20        1.0     0.111903     0.427659     0.591660    Uiso  ? N
   N21        1.0     0.903204     0.512609     0.337958    Uiso  ? N
   N22        1.0     0.792927     0.422235     0.076761    Uiso  ? N
   N23        1.0     0.558158     0.533491     0.831009    Uiso  ? N
   N24        1.0     0.434447     0.446569     0.580292    Uiso  ? N
   N25        1.0     0.231976     0.856565     0.352079    Uiso  ? N
   N26        1.0     0.112130     0.747401     0.133870    Uiso  ? N
   N27        1.0     0.901495     0.865935     0.876883    Uiso  ? N
   N28        1.0     0.774533     0.760619     0.585581    Uiso  ? N
   N29        1.0     0.532746     0.882365     0.345770    Uiso  ? N
   N30        1.0     0.448226     0.756132     0.067028    Uiso  ? N
   N31        1.0     0.224431     0.878117     0.829448    Uiso  ? N
   N32        1.0     0.107028     0.765450     0.630220    Uiso  ? N
   N33        1.0     0.911294     0.859312     0.372974    Uiso  ? N
   N34        1.0     0.790043     0.749699     0.125784    Uiso  ? N
   N35        1.0     0.541035     0.883455     0.829275    Uiso  ? N
   N36        1.0     0.446543     0.759386     0.590027    Uiso  ? N
