
#======================================================================
# CRYSTAL DATA
#----------------------------------------------------------------------
data_VESTA_phase_1

_chemical_name_common                  'Mg   Al   Hf   N                      '
_cell_length_a                         9.783775
_cell_length_b                         9.797467
_cell_length_c                         10.217189
_cell_angle_alpha                      89.865356
_cell_angle_beta                       89.756538
_cell_angle_gamma                      60.107182
_cell_volume                           849.075767
_space_group_name_H-M_alt              'P 1'
_space_group_IT_number                 1

loop_
_space_group_symop_operation_xyz
   'x, y, z'

loop_
   _atom_site_label
   _atom_site_occupancy
   _atom_site_fract_x
   _atom_site_fract_y
   _atom_site_fract_z
   _atom_site_adp_type
   _atom_site_U_iso_or_equiv
   _atom_site_type_symbol
   Mg1        1.0     0.115198     0.091288     0.373296    Uiso  ? Mg
   Mg2        1.0     0.552411     0.541392     0.076816    Uiso  ? Mg
   Mg3        1.0     0.224395     0.868002     0.076874    Uiso  ? Mg
   Mg4        1.0     0.767801     0.755246     0.889890    Uiso  ? Mg
   Mg5        1.0     0.544998     0.882279     0.126911    Uiso  ? Mg
   Al1        1.0     0.223101     0.211568     0.135830    Uiso  ? Al
   Al2        1.0     0.901275     0.206474     0.639294    Uiso  ? Al
   Al3        1.0     0.429151     0.094895     0.390082    Uiso  ? Al
   Al4        1.0     0.533889     0.222204     0.064437    Uiso  ? Al
   Al5        1.0     0.117900     0.093493     0.888678    Uiso  ? Al
   Al6        1.0     0.215470     0.194649     0.633861    Uiso  ? Al
   Al7        1.0     0.900007     0.223443     0.124958    Uiso  ? Al
   Al8        1.0     0.434904     0.088068     0.882310    Uiso  ? Al
   Al9        1.0     0.116869     0.416513     0.390680    Uiso  ? Al
   Al10       1.0     0.226560     0.544799     0.077065    Uiso  ? Al
   Al11       1.0     0.778279     0.433446     0.885187    Uiso  ? Al
   Al12       1.0     0.882279     0.538173     0.631337    Uiso  ? Al
   Al13       1.0     0.435750     0.435167     0.322585    Uiso  ? Al
   Al14       1.0     0.217300     0.549271     0.570643    Uiso  ? Al
   Al15       1.0     0.779367     0.420135     0.386173    Uiso  ? Al
   Al16       1.0     0.898431     0.529066     0.137556    Uiso  ? Al
   Al17       1.0     0.441986     0.449130     0.818417    Uiso  ? Al
   Al18       1.0     0.548741     0.549186     0.568980    Uiso  ? Al
   Al19       1.0     0.124431     0.752589     0.323033    Uiso  ? Al
   Al20       1.0     0.899318     0.865167     0.575555    Uiso  ? Al
   Al21       1.0     0.436049     0.756700     0.314533    Uiso  ? Al
   Al22       1.0     0.121765     0.764221     0.820061    Uiso  ? Al
   Al23       1.0     0.225755     0.866882     0.570282    Uiso  ? Al
   Al24       1.0     0.907983     0.849165     0.073767    Uiso  ? Al
   Al25       1.0     0.439541     0.761293     0.820224    Uiso  ? Al
   Al26       1.0     0.556209     0.868041     0.635239    Uiso  ? Al
   Hf1        1.0     0.785702     0.089444     0.854854    Uiso  ? Hf
   Hf2        1.0     0.767233     0.096130     0.305895    Uiso  ? Hf
   Hf3        1.0     0.550090     0.209177     0.600035    Uiso  ? Hf
   Hf4        1.0     0.112143     0.429526     0.868394    Uiso  ? Hf
   Hf5        1.0     0.776336     0.755287     0.355915    Uiso  ? Hf
   N1         1.0     0.229803     0.215006     0.321827    Uiso  ? N
   N2         1.0     0.108078     0.114539     0.075186    Uiso  ? N
   N3         1.0     0.901435     0.216065     0.829618    Uiso  ? N
   N4         1.0     0.793719     0.079985     0.636093    Uiso  ? N
   N5         1.0     0.542644     0.216812     0.388643    Uiso  ? N
   N6         1.0     0.429338     0.111214     0.065409    Uiso  ? N
   N7         1.0     0.227391     0.192115     0.819328    Uiso  ? N
   N8         1.0     0.107576     0.093172     0.582025    Uiso  ? N
   N9         1.0     0.880105     0.218757     0.312777    Uiso  ? N
   N10        1.0     0.769170     0.098642     0.093109    Uiso  ? N
   N11        1.0     0.534832     0.221777     0.850992    Uiso  ? N
   N12        1.0     0.430258     0.085171     0.579997    Uiso  ? N
   N13        1.0     0.220864     0.539072     0.384012    Uiso  ? N
   N14        1.0     0.111147     0.430424     0.075203    Uiso  ? N
   N15        1.0     0.879737     0.535927     0.815111    Uiso  ? N
   N16        1.0     0.781588     0.419651     0.575689    Uiso  ? N
   N17        1.0     0.552619     0.537141     0.379446    Uiso  ? N
   N18        1.0     0.435794     0.419663     0.137555    Uiso  ? N
   N19        1.0     0.235885     0.553743     0.882734    Uiso  ? N
   N20        1.0     0.111136     0.422563     0.589791    Uiso  ? N
   N21        1.0     0.903692     0.509980     0.329251    Uiso  ? N
   N22        1.0     0.796138     0.427835     0.069432    Uiso  ? N
   N23        1.0     0.558362     0.541456     0.864730    Uiso  ? N
   N24        1.0     0.429945     0.451358     0.630563    Uiso  ? N
   N25        1.0     0.232567     0.848512     0.385556    Uiso  ? N
   N26        1.0     0.108282     0.750747     0.140932    Uiso  ? N
   N27        1.0     0.914743     0.851915     0.888762    Uiso  ? N
   N28        1.0     0.777075     0.756818     0.576688    Uiso  ? N
   N29        1.0     0.538102     0.885301     0.343310    Uiso  ? N
   N30        1.0     0.440963     0.756812     0.136977    Uiso  ? N
   N31        1.0     0.222955     0.874617     0.865875    Uiso  ? N
   N32        1.0     0.110123     0.759135     0.632662    Uiso  ? N
   N33        1.0     0.907144     0.873080     0.385185    Uiso  ? N
   N34        1.0     0.792018     0.753248     0.122194    Uiso  ? N
   N35        1.0     0.546041     0.882398     0.824334    Uiso  ? N
   N36        1.0     0.442477     0.758219     0.627578    Uiso  ? N
