
#======================================================================
# CRYSTAL DATA
#----------------------------------------------------------------------
data_VESTA_phase_1

_chemical_name_common                  'Mg   Al   Hf   N                      '
_cell_length_a                         9.788074
_cell_length_b                         9.803417
_cell_length_c                         10.181711
_cell_angle_alpha                      89.768684
_cell_angle_beta                       89.448410
_cell_angle_gamma                      59.919540
_cell_volume                           845.382337
_space_group_name_H-M_alt              'P 1'
_space_group_IT_number                 1

loop_
_space_group_symop_operation_xyz
   'x, y, z'

loop_
   _atom_site_label
   _atom_site_occupancy
   _atom_site_fract_x
   _atom_site_fract_y
   _atom_site_fract_z
   _atom_site_adp_type
   _atom_site_U_iso_or_equiv
   _atom_site_type_symbol
   Mg1        1.0     0.116882     0.087083     0.326724    Uiso  ? Mg
   Mg2        1.0     0.556917     0.538230     0.075271    Uiso  ? Mg
   Mg3        1.0     0.222543     0.874336     0.072728    Uiso  ? Mg
   Mg4        1.0     0.777824     0.758686     0.822417    Uiso  ? Mg
   Mg5        1.0     0.549441     0.875481     0.119790    Uiso  ? Mg
   Al1        1.0     0.222537     0.210248     0.136399    Uiso  ? Al
   Al2        1.0     0.893313     0.207518     0.574162    Uiso  ? Al
   Al3        1.0     0.432548     0.094076     0.389798    Uiso  ? Al
   Al4        1.0     0.535257     0.220171     0.065145    Uiso  ? Al
   Al5        1.0     0.115372     0.082791     0.819628    Uiso  ? Al
   Al6        1.0     0.217198     0.203119     0.635496    Uiso  ? Al
   Al7        1.0     0.905512     0.220206     0.067452    Uiso  ? Al
   Al8        1.0     0.433895     0.085253     0.886373    Uiso  ? Al
   Al9        1.0     0.118569     0.424279     0.357422    Uiso  ? Al
   Al10       1.0     0.225676     0.544292     0.078349    Uiso  ? Al
   Al11       1.0     0.769623     0.435246     0.819235    Uiso  ? Al
   Al12       1.0     0.890268     0.531928     0.578363    Uiso  ? Al
   Al13       1.0     0.439440     0.433424     0.322720    Uiso  ? Al
   Al14       1.0     0.216403     0.548404     0.574797    Uiso  ? Al
   Al15       1.0     0.777762     0.424801     0.322652    Uiso  ? Al
   Al16       1.0     0.882796     0.539213     0.075596    Uiso  ? Al
   Al17       1.0     0.440852     0.447434     0.821061    Uiso  ? Al
   Al18       1.0     0.554434     0.546306     0.569211    Uiso  ? Al
   Al19       1.0     0.123262     0.756476     0.322907    Uiso  ? Al
   Al20       1.0     0.900024     0.867260     0.577943    Uiso  ? Al
   Al21       1.0     0.436114     0.757168     0.316848    Uiso  ? Al
   Al22       1.0     0.122625     0.760931     0.821260    Uiso  ? Al
   Al23       1.0     0.225218     0.867318     0.571643    Uiso  ? Al
   Al24       1.0     0.905137     0.847218     0.072241    Uiso  ? Al
   Al25       1.0     0.440512     0.759143     0.820794    Uiso  ? Al
   Al26       1.0     0.548654     0.871642     0.630148    Uiso  ? Al
   Hf1        1.0     0.785274     0.090418     0.853736    Uiso  ? Hf
   Hf2        1.0     0.776897     0.101187     0.307901    Uiso  ? Hf
   Hf3        1.0     0.551873     0.209322     0.598896    Uiso  ? Hf
   Hf4        1.0     0.112420     0.428740     0.860982    Uiso  ? Hf
   Hf5        1.0     0.778364     0.756638     0.347124    Uiso  ? Hf
   N1         1.0     0.233445     0.215667     0.326706    Uiso  ? N
   N2         1.0     0.106680     0.107077     0.121793    Uiso  ? N
   N3         1.0     0.899428     0.217781     0.878038    Uiso  ? N
   N4         1.0     0.795888     0.083856     0.638972    Uiso  ? N
   N5         1.0     0.548399     0.212382     0.386789    Uiso  ? N
   N6         1.0     0.431699     0.107714     0.069224    Uiso  ? N
   N7         1.0     0.228656     0.189751     0.824210    Uiso  ? N
   N8         1.0     0.106713     0.090643     0.624169    Uiso  ? N
   N9         1.0     0.877361     0.216622     0.389413    Uiso  ? N
   N10        1.0     0.771105     0.098434     0.093846    Uiso  ? N
   N11        1.0     0.534563     0.220704     0.854907    Uiso  ? N
   N12        1.0     0.428577     0.089524     0.579862    Uiso  ? N
   N13        1.0     0.221114     0.540374     0.385938    Uiso  ? N
   N14        1.0     0.111710     0.429893     0.084246    Uiso  ? N
   N15        1.0     0.872212     0.536166     0.885145    Uiso  ? N
   N16        1.0     0.776609     0.426925     0.630295    Uiso  ? N
   N17        1.0     0.558245     0.534030     0.381338    Uiso  ? N
   N18        1.0     0.436086     0.418900     0.138132    Uiso  ? N
   N19        1.0     0.235400     0.553075     0.885840    Uiso  ? N
   N20        1.0     0.110795     0.431588     0.625317    Uiso  ? N
   N21        1.0     0.900975     0.513827     0.388956    Uiso  ? N
   N22        1.0     0.791584     0.421747     0.138671    Uiso  ? N
   N23        1.0     0.557081     0.539627     0.868336    Uiso  ? N
   N24        1.0     0.431498     0.450258     0.631226    Uiso  ? N
   N25        1.0     0.229125     0.854244     0.388305    Uiso  ? N
   N26        1.0     0.106736     0.752519     0.140511    Uiso  ? N
   N27        1.0     0.913057     0.851194     0.886448    Uiso  ? N
   N28        1.0     0.779536     0.760442     0.599975    Uiso  ? N
   N29        1.0     0.538862     0.880831     0.352981    Uiso  ? N
   N30        1.0     0.440441     0.755218     0.138274    Uiso  ? N
   N31        1.0     0.222788     0.871937     0.865190    Uiso  ? N
   N32        1.0     0.111166     0.759823     0.633155    Uiso  ? N
   N33        1.0     0.903938     0.876274     0.388232    Uiso  ? N
   N34        1.0     0.795997     0.750043     0.138230    Uiso  ? N
   N35        1.0     0.541769     0.882687     0.822340    Uiso  ? N
   N36        1.0     0.441701     0.756606     0.626721    Uiso  ? N
