
#======================================================================
# CRYSTAL DATA
#----------------------------------------------------------------------
data_VESTA_phase_1

_chemical_name_common                  'Mg   Al   Hf   N                      '
_cell_length_a                         9.789584
_cell_length_b                         9.803414
_cell_length_c                         10.186579
_cell_angle_alpha                      89.767235
_cell_angle_beta                       89.440964
_cell_angle_gamma                      59.909874
_cell_volume                           845.832912
_space_group_name_H-M_alt              'P 1'
_space_group_IT_number                 1

loop_
_space_group_symop_operation_xyz
   'x, y, z'

loop_
   _atom_site_label
   _atom_site_occupancy
   _atom_site_fract_x
   _atom_site_fract_y
   _atom_site_fract_z
   _atom_site_adp_type
   _atom_site_U_iso_or_equiv
   _atom_site_type_symbol
   Mg1        1.0     0.116961     0.087094     0.326639    Uiso  ? Mg
   Mg2        1.0     0.556835     0.538229     0.075282    Uiso  ? Mg
   Mg3        1.0     0.222502     0.874590     0.072838    Uiso  ? Mg
   Mg4        1.0     0.777492     0.759255     0.822583    Uiso  ? Mg
   Mg5        1.0     0.549181     0.875642     0.119731    Uiso  ? Mg
   Al1        1.0     0.221587     0.212201     0.137279    Uiso  ? Al
   Al2        1.0     0.893219     0.207403     0.574013    Uiso  ? Al
   Al3        1.0     0.432907     0.093698     0.389508    Uiso  ? Al
   Al4        1.0     0.535131     0.220114     0.065185    Uiso  ? Al
   Al5        1.0     0.115327     0.083042     0.819426    Uiso  ? Al
   Al6        1.0     0.217769     0.202068     0.634905    Uiso  ? Al
   Al7        1.0     0.905766     0.220184     0.067499    Uiso  ? Al
   Al8        1.0     0.433446     0.085595     0.886561    Uiso  ? Al
   Al9        1.0     0.119682     0.421793     0.372421    Uiso  ? Al
   Al10       1.0     0.225426     0.543950     0.078099    Uiso  ? Al
   Al11       1.0     0.769429     0.435203     0.819211    Uiso  ? Al
   Al12       1.0     0.888058     0.532927     0.578690    Uiso  ? Al
   Al13       1.0     0.439157     0.433459     0.322507    Uiso  ? Al
   Al14       1.0     0.217713     0.549424     0.574943    Uiso  ? Al
   Al15       1.0     0.777748     0.424835     0.322421    Uiso  ? Al
   Al16       1.0     0.883167     0.538942     0.074969    Uiso  ? Al
   Al17       1.0     0.441069     0.447361     0.821129    Uiso  ? Al
   Al18       1.0     0.554433     0.546237     0.568987    Uiso  ? Al
   Al19       1.0     0.123480     0.756065     0.322807    Uiso  ? Al
   Al20       1.0     0.899935     0.867243     0.577853    Uiso  ? Al
   Al21       1.0     0.436200     0.757046     0.316724    Uiso  ? Al
   Al22       1.0     0.122568     0.761350     0.821323    Uiso  ? Al
   Al23       1.0     0.225237     0.867417     0.571458    Uiso  ? Al
   Al24       1.0     0.905202     0.847206     0.072138    Uiso  ? Al
   Al25       1.0     0.440444     0.759190     0.820900    Uiso  ? Al
   Al26       1.0     0.548699     0.871601     0.630385    Uiso  ? Al
   Hf1        1.0     0.785214     0.090575     0.853777    Uiso  ? Hf
   Hf2        1.0     0.777014     0.101045     0.307864    Uiso  ? Hf
   Hf3        1.0     0.551997     0.209136     0.598708    Uiso  ? Hf
   Hf4        1.0     0.112510     0.428779     0.862008    Uiso  ? Hf
   Hf5        1.0     0.778886     0.756121     0.346323    Uiso  ? Hf
   N1         1.0     0.233092     0.216506     0.327409    Uiso  ? N
   N2         1.0     0.106871     0.107489     0.122098    Uiso  ? N
   N3         1.0     0.899538     0.217789     0.878125    Uiso  ? N
   N4         1.0     0.795849     0.083829     0.638982    Uiso  ? N
   N5         1.0     0.548483     0.212309     0.386720    Uiso  ? N
   N6         1.0     0.431084     0.108104     0.069443    Uiso  ? N
   N7         1.0     0.228580     0.190301     0.822958    Uiso  ? N
   N8         1.0     0.106618     0.090442     0.624028    Uiso  ? N
   N9         1.0     0.877347     0.216583     0.389342    Uiso  ? N
   N10        1.0     0.771106     0.098398     0.093887    Uiso  ? N
   N11        1.0     0.534526     0.220682     0.855071    Uiso  ? N
   N12        1.0     0.429069     0.089003     0.579538    Uiso  ? N
   N13        1.0     0.221733     0.540666     0.386555    Uiso  ? N
   N14        1.0     0.112068     0.429083     0.079454    Uiso  ? N
   N15        1.0     0.872039     0.536435     0.883820    Uiso  ? N
   N16        1.0     0.776214     0.426662     0.630469    Uiso  ? N
   N17        1.0     0.558207     0.533892     0.381190    Uiso  ? N
   N18        1.0     0.435833     0.418944     0.137972    Uiso  ? N
   N19        1.0     0.235393     0.553410     0.884961    Uiso  ? N
   N20        1.0     0.111780     0.429928     0.617743    Uiso  ? N
   N21        1.0     0.899701     0.514163     0.389543    Uiso  ? N
   N22        1.0     0.791689     0.421879     0.138412    Uiso  ? N
   N23        1.0     0.557042     0.539697     0.868508    Uiso  ? N
   N24        1.0     0.432049     0.450044     0.631462    Uiso  ? N
   N25        1.0     0.229152     0.854200     0.388224    Uiso  ? N
   N26        1.0     0.106790     0.752240     0.140414    Uiso  ? N
   N27        1.0     0.913038     0.851394     0.886468    Uiso  ? N
   N28        1.0     0.779425     0.760670     0.600494    Uiso  ? N
   N29        1.0     0.539278     0.880539     0.352554    Uiso  ? N
   N30        1.0     0.440384     0.755196     0.138255    Uiso  ? N
   N31        1.0     0.222732     0.872300     0.865311    Uiso  ? N
   N32        1.0     0.111003     0.760228     0.633370    Uiso  ? N
   N33        1.0     0.904026     0.876043     0.388220    Uiso  ? N
   N34        1.0     0.796104     0.749780     0.137636    Uiso  ? N
   N35        1.0     0.541411     0.882977     0.822463    Uiso  ? N
   N36        1.0     0.441727     0.756549     0.626753    Uiso  ? N
