
#======================================================================
# CRYSTAL DATA
#----------------------------------------------------------------------
data_VESTA_phase_1

_chemical_name_common                  'Mg   Al   Hf   N                      '
_cell_length_a                         9.842039
_cell_length_b                         9.861411
_cell_length_c                         9.966778
_cell_angle_alpha                      89.976685
_cell_angle_beta                       89.446075
_cell_angle_gamma                      60.130772
_cell_volume                           838.792294
_space_group_name_H-M_alt              'P 1'
_space_group_IT_number                 1

loop_
_space_group_symop_operation_xyz
   'x, y, z'

loop_
   _atom_site_label
   _atom_site_occupancy
   _atom_site_fract_x
   _atom_site_fract_y
   _atom_site_fract_z
   _atom_site_adp_type
   _atom_site_U_iso_or_equiv
   _atom_site_type_symbol
   Mg1        1.0     0.116925     0.095309     0.369177    Uiso  ? Mg
   Mg2        1.0     0.566463     0.524645     0.119923    Uiso  ? Mg
   Mg3        1.0     0.211722     0.874485     0.086955    Uiso  ? Mg
   Mg4        1.0     0.772199     0.757802     0.881302    Uiso  ? Mg
   Mg5        1.0     0.551348     0.884062     0.113682    Uiso  ? Mg
   Al1        1.0     0.220945     0.211535     0.134847    Uiso  ? Al
   Al2        1.0     0.899987     0.204733     0.630154    Uiso  ? Al
   Al3        1.0     0.428504     0.094048     0.380859    Uiso  ? Al
   Al4        1.0     0.530305     0.218243     0.139671    Uiso  ? Al
   Al5        1.0     0.117738     0.090404     0.885013    Uiso  ? Al
   Al6        1.0     0.218175     0.192484     0.629463    Uiso  ? Al
   Al7        1.0     0.900027     0.222852     0.133003    Uiso  ? Al
   Al8        1.0     0.436760     0.093575     0.886181    Uiso  ? Al
   Al9        1.0     0.116691     0.420115     0.390395    Uiso  ? Al
   Al10       1.0     0.224360     0.530190     0.136430    Uiso  ? Al
   Al11       1.0     0.778321     0.429806     0.881274    Uiso  ? Al
   Al12       1.0     0.880097     0.540807     0.628104    Uiso  ? Al
   Al13       1.0     0.439118     0.446873     0.382745    Uiso  ? Al
   Al14       1.0     0.219892     0.546710     0.616336    Uiso  ? Al
   Al15       1.0     0.770193     0.431275     0.387487    Uiso  ? Al
   Al16       1.0     0.897804     0.527383     0.134204    Uiso  ? Al
   Al17       1.0     0.439135     0.437554     0.887387    Uiso  ? Al
   Al18       1.0     0.552365     0.549551     0.639989    Uiso  ? Al
   Al19       1.0     0.122704     0.752407     0.321569    Uiso  ? Al
   Al20       1.0     0.898291     0.863961     0.570157    Uiso  ? Al
   Al21       1.0     0.438472     0.759272     0.300503    Uiso  ? Al
   Al22       1.0     0.120797     0.770591     0.813633    Uiso  ? Al
   Al23       1.0     0.233388     0.864981     0.560670    Uiso  ? Al
   Al24       1.0     0.909269     0.845960     0.078771    Uiso  ? Al
   Al25       1.0     0.441669     0.762349     0.894815    Uiso  ? Al
   Al26       1.0     0.546776     0.866772     0.642782    Uiso  ? Al
   Hf1        1.0     0.776000     0.100530     0.890837    Uiso  ? Hf
   Hf2        1.0     0.780732     0.097694     0.346671    Uiso  ? Hf
   Hf3        1.0     0.547504     0.209401     0.615579    Uiso  ? Hf
   Hf4        1.0     0.112435     0.429547     0.865529    Uiso  ? Hf
   Hf5        1.0     0.769733     0.756166     0.352929    Uiso  ? Hf
   N1         1.0     0.226428     0.217918     0.323453    Uiso  ? N
   N2         1.0     0.105889     0.116181     0.077362    Uiso  ? N
   N3         1.0     0.897857     0.209362     0.825009    Uiso  ? N
   N4         1.0     0.789538     0.091619     0.579885    Uiso  ? N
   N5         1.0     0.534319     0.218188     0.341127    Uiso  ? N
   N6         1.0     0.430900     0.116874     0.072568    Uiso  ? N
   N7         1.0     0.228604     0.191245     0.820460    Uiso  ? N
   N8         1.0     0.110514     0.091358     0.580363    Uiso  ? N
   N9         1.0     0.884117     0.226292     0.320897    Uiso  ? N
   N10        1.0     0.773650     0.096902     0.108707    Uiso  ? N
   N11        1.0     0.539256     0.213781     0.826088    Uiso  ? N
   N12        1.0     0.433753     0.084374     0.574221    Uiso  ? N
   N13        1.0     0.223438     0.532172     0.344887    Uiso  ? N
   N14        1.0     0.112147     0.429937     0.076959    Uiso  ? N
   N15        1.0     0.879695     0.534366     0.816352    Uiso  ? N
   N16        1.0     0.775400     0.425463     0.579855    Uiso  ? N
   N17        1.0     0.560274     0.537071     0.330415    Uiso  ? N
   N18        1.0     0.434054     0.420875     0.075954    Uiso  ? N
   N19        1.0     0.234137     0.545937     0.817850    Uiso  ? N
   N20        1.0     0.111096     0.425200     0.588443    Uiso  ? N
   N21        1.0     0.901862     0.513863     0.331014    Uiso  ? N
   N22        1.0     0.797478     0.423004     0.067300    Uiso  ? N
   N23        1.0     0.559579     0.533040     0.837054    Uiso  ? N
   N24        1.0     0.438160     0.447110     0.575201    Uiso  ? N
   N25        1.0     0.231779     0.852885     0.365196    Uiso  ? N
   N26        1.0     0.109961     0.746541     0.133935    Uiso  ? N
   N27        1.0     0.910283     0.863163     0.883181    Uiso  ? N
   N28        1.0     0.772282     0.762177     0.580859    Uiso  ? N
   N29        1.0     0.532448     0.886639     0.326708    Uiso  ? N
   N30        1.0     0.446181     0.756988     0.095173    Uiso  ? N
   N31        1.0     0.221524     0.873160     0.870861    Uiso  ? N
   N32        1.0     0.107907     0.768773     0.619428    Uiso  ? N
   N33        1.0     0.910336     0.858431     0.374999    Uiso  ? N
   N34        1.0     0.794454     0.748139     0.115935    Uiso  ? N
   N35        1.0     0.541969     0.881932     0.837980    Uiso  ? N
   N36        1.0     0.444238     0.759350     0.606190    Uiso  ? N
