
#======================================================================
# CRYSTAL DATA
#----------------------------------------------------------------------
data_VESTA_phase_1

_chemical_name_common                  'Mg   Al   Hf   N                      '
_cell_length_a                         9.846692
_cell_length_b                         9.863578
_cell_length_c                         9.961602
_cell_angle_alpha                      89.962646
_cell_angle_beta                       89.424736
_cell_angle_gamma                      60.122013
_cell_volume                           838.860901
_space_group_name_H-M_alt              'P 1'
_space_group_IT_number                 1

loop_
_space_group_symop_operation_xyz
   'x, y, z'

loop_
   _atom_site_label
   _atom_site_occupancy
   _atom_site_fract_x
   _atom_site_fract_y
   _atom_site_fract_z
   _atom_site_adp_type
   _atom_site_U_iso_or_equiv
   _atom_site_type_symbol
   Mg1        1.0     0.117000     0.095147     0.369002    Uiso  ? Mg
   Mg2        1.0     0.566875     0.524804     0.120104    Uiso  ? Mg
   Mg3        1.0     0.211755     0.874636     0.087228    Uiso  ? Mg
   Mg4        1.0     0.772232     0.758038     0.881372    Uiso  ? Mg
   Mg5        1.0     0.551313     0.884012     0.113666    Uiso  ? Mg
   Al1        1.0     0.220917     0.211706     0.134592    Uiso  ? Al
   Al2        1.0     0.900018     0.204767     0.630163    Uiso  ? Al
   Al3        1.0     0.428433     0.094126     0.380912    Uiso  ? Al
   Al4        1.0     0.530389     0.217942     0.140114    Uiso  ? Al
   Al5        1.0     0.117858     0.090272     0.885083    Uiso  ? Al
   Al6        1.0     0.218324     0.191789     0.629589    Uiso  ? Al
   Al7        1.0     0.900101     0.222875     0.133116    Uiso  ? Al
   Al8        1.0     0.436835     0.093457     0.886273    Uiso  ? Al
   Al9        1.0     0.115773     0.419722     0.390735    Uiso  ? Al
   Al10       1.0     0.223792     0.531717     0.125503    Uiso  ? Al
   Al11       1.0     0.778442     0.429904     0.881351    Uiso  ? Al
   Al12       1.0     0.879385     0.540968     0.628288    Uiso  ? Al
   Al13       1.0     0.439910     0.446519     0.383231    Uiso  ? Al
   Al14       1.0     0.218435     0.547689     0.604471    Uiso  ? Al
   Al15       1.0     0.770161     0.431270     0.387534    Uiso  ? Al
   Al16       1.0     0.897905     0.527372     0.133906    Uiso  ? Al
   Al17       1.0     0.440109     0.437136     0.886692    Uiso  ? Al
   Al18       1.0     0.552441     0.549556     0.640369    Uiso  ? Al
   Al19       1.0     0.123206     0.751231     0.322118    Uiso  ? Al
   Al20       1.0     0.898263     0.864119     0.570281    Uiso  ? Al
   Al21       1.0     0.438379     0.759368     0.300670    Uiso  ? Al
   Al22       1.0     0.121646     0.769383     0.813489    Uiso  ? Al
   Al23       1.0     0.233324     0.865003     0.560755    Uiso  ? Al
   Al24       1.0     0.908814     0.846407     0.079055    Uiso  ? Al
   Al25       1.0     0.441548     0.762397     0.894789    Uiso  ? Al
   Al26       1.0     0.546712     0.866807     0.642832    Uiso  ? Al
   Hf1        1.0     0.776344     0.100444     0.890931    Uiso  ? Hf
   Hf2        1.0     0.780715     0.097806     0.347006    Uiso  ? Hf
   Hf3        1.0     0.547561     0.209258     0.616046    Uiso  ? Hf
   Hf4        1.0     0.112430     0.429542     0.862616    Uiso  ? Hf
   Hf5        1.0     0.769758     0.756251     0.352929    Uiso  ? Hf
   N1         1.0     0.226404     0.218104     0.323295    Uiso  ? N
   N2         1.0     0.105903     0.116169     0.077580    Uiso  ? N
   N3         1.0     0.898004     0.209448     0.825057    Uiso  ? N
   N4         1.0     0.789549     0.091641     0.580001    Uiso  ? N
   N5         1.0     0.534130     0.218427     0.341160    Uiso  ? N
   N6         1.0     0.430924     0.116947     0.072712    Uiso  ? N
   N7         1.0     0.229136     0.190445     0.820467    Uiso  ? N
   N8         1.0     0.110474     0.091147     0.580229    Uiso  ? N
   N9         1.0     0.884139     0.226269     0.321023    Uiso  ? N
   N10        1.0     0.773824     0.096679     0.108961    Uiso  ? N
   N11        1.0     0.539620     0.213456     0.826489    Uiso  ? N
   N12        1.0     0.433658     0.084418     0.574180    Uiso  ? N
   N13        1.0     0.221702     0.534619     0.357361    Uiso  ? N
   N14        1.0     0.111968     0.429625     0.075818    Uiso  ? N
   N15        1.0     0.878811     0.535076     0.816393    Uiso  ? N
   N16        1.0     0.775317     0.425478     0.579836    Uiso  ? N
   N17        1.0     0.560297     0.537129     0.330509    Uiso  ? N
   N18        1.0     0.435439     0.420409     0.076304    Uiso  ? N
   N19        1.0     0.233707     0.546834     0.822921    Uiso  ? N
   N20        1.0     0.110155     0.424250     0.589734    Uiso  ? N
   N21        1.0     0.901724     0.513853     0.330834    Uiso  ? N
   N22        1.0     0.797595     0.422950     0.067436    Uiso  ? N
   N23        1.0     0.559995     0.533132     0.837283    Uiso  ? N
   N24        1.0     0.439541     0.446481     0.576564    Uiso  ? N
   N25        1.0     0.231622     0.852789     0.364970    Uiso  ? N
   N26        1.0     0.110043     0.745983     0.134597    Uiso  ? N
   N27        1.0     0.910463     0.863263     0.883515    Uiso  ? N
   N28        1.0     0.772297     0.762262     0.580755    Uiso  ? N
   N29        1.0     0.532476     0.886680     0.326736    Uiso  ? N
   N30        1.0     0.446084     0.757008     0.095315    Uiso  ? N
   N31        1.0     0.221390     0.873148     0.871050    Uiso  ? N
   N32        1.0     0.107799     0.768798     0.619904    Uiso  ? N
   N33        1.0     0.910291     0.858619     0.374794    Uiso  ? N
   N34        1.0     0.794504     0.748153     0.116045    Uiso  ? N
   N35        1.0     0.542045     0.881868     0.838086    Uiso  ? N
   N36        1.0     0.444220     0.759386     0.606178    Uiso  ? N
