
#======================================================================
# CRYSTAL DATA
#----------------------------------------------------------------------
data_VESTA_phase_1

_chemical_name_common                  'Mg   Al   Hf   N                      '
_cell_length_a                         9.810061
_cell_length_b                         9.827524
_cell_length_c                         10.072768
_cell_angle_alpha                      90.046234
_cell_angle_beta                       89.538353
_cell_angle_gamma                      60.146626
_cell_volume                           842.198178
_space_group_name_H-M_alt              'P 1'
_space_group_IT_number                 1

loop_
_space_group_symop_operation_xyz
   'x, y, z'

loop_
   _atom_site_label
   _atom_site_occupancy
   _atom_site_fract_x
   _atom_site_fract_y
   _atom_site_fract_z
   _atom_site_adp_type
   _atom_site_U_iso_or_equiv
   _atom_site_type_symbol
   Mg1        1.0     0.116056     0.096565     0.378063    Uiso  ? Mg
   Mg2        1.0     0.563101     0.530342     0.130980    Uiso  ? Mg
   Mg3        1.0     0.216837     0.872915     0.091905    Uiso  ? Mg
   Mg4        1.0     0.769007     0.757955     0.888677    Uiso  ? Mg
   Mg5        1.0     0.548116     0.882025     0.126361    Uiso  ? Mg
   Al1        1.0     0.221776     0.209246     0.141359    Uiso  ? Al
   Al2        1.0     0.899086     0.205069     0.637210    Uiso  ? Al
   Al3        1.0     0.428720     0.095416     0.387596    Uiso  ? Al
   Al4        1.0     0.530902     0.217646     0.144529    Uiso  ? Al
   Al5        1.0     0.116867     0.091355     0.890052    Uiso  ? Al
   Al6        1.0     0.217309     0.196091     0.636108    Uiso  ? Al
   Al7        1.0     0.899491     0.222291     0.138327    Uiso  ? Al
   Al8        1.0     0.436875     0.091844     0.891322    Uiso  ? Al
   Al9        1.0     0.118938     0.420342     0.394016    Uiso  ? Al
   Al10       1.0     0.225966     0.529641     0.144681    Uiso  ? Al
   Al11       1.0     0.776128     0.431259     0.886860    Uiso  ? Al
   Al12       1.0     0.882856     0.540089     0.634263    Uiso  ? Al
   Al13       1.0     0.437717     0.444739     0.388456    Uiso  ? Al
   Al14       1.0     0.220064     0.545472     0.632631    Uiso  ? Al
   Al15       1.0     0.772724     0.429133     0.394339    Uiso  ? Al
   Al16       1.0     0.896030     0.527247     0.141469    Uiso  ? Al
   Al17       1.0     0.439277     0.439233     0.894241    Uiso  ? Al
   Al18       1.0     0.552806     0.548977     0.642392    Uiso  ? Al
   Al19       1.0     0.123238     0.752506     0.323644    Uiso  ? Al
   Al20       1.0     0.899049     0.863143     0.574336    Uiso  ? Al
   Al21       1.0     0.441759     0.757091     0.345178    Uiso  ? Al
   Al22       1.0     0.117686     0.772996     0.821136    Uiso  ? Al
   Al23       1.0     0.228223     0.867195     0.569756    Uiso  ? Al
   Al24       1.0     0.908900     0.846443     0.084462    Uiso  ? Al
   Al25       1.0     0.442932     0.762417     0.901446    Uiso  ? Al
   Al26       1.0     0.547784     0.866805     0.644743    Uiso  ? Al
   Hf1        1.0     0.774334     0.101859     0.899800    Uiso  ? Hf
   Hf2        1.0     0.781146     0.097218     0.352694    Uiso  ? Hf
   Hf3        1.0     0.548126     0.209614     0.623279    Uiso  ? Hf
   Hf4        1.0     0.111521     0.429711     0.879122    Uiso  ? Hf
   Hf5        1.0     0.772345     0.754926     0.358448    Uiso  ? Hf
   N1         1.0     0.227045     0.216530     0.328073    Uiso  ? N
   N2         1.0     0.105304     0.116196     0.080501    Uiso  ? N
   N3         1.0     0.895970     0.209703     0.829925    Uiso  ? N
   N4         1.0     0.789640     0.091910     0.582115    Uiso  ? N
   N5         1.0     0.534544     0.217518     0.344262    Uiso  ? N
   N6         1.0     0.431992     0.114812     0.076624    Uiso  ? N
   N7         1.0     0.227462     0.193637     0.825640    Uiso  ? N
   N8         1.0     0.109914     0.093535     0.587165    Uiso  ? N
   N9         1.0     0.884865     0.225789     0.324531    Uiso  ? N
   N10        1.0     0.773881     0.096612     0.114979    Uiso  ? N
   N11        1.0     0.538904     0.214176     0.831236    Uiso  ? N
   N12        1.0     0.433319     0.086124     0.578799    Uiso  ? N
   N13        1.0     0.225700     0.529912     0.339953    Uiso  ? N
   N14        1.0     0.111663     0.429625     0.086362    Uiso  ? N
   N15        1.0     0.881016     0.533488     0.821356    Uiso  ? N
   N16        1.0     0.776711     0.425068     0.584557    Uiso  ? N
   N17        1.0     0.561176     0.534691     0.338898    Uiso  ? N
   N18        1.0     0.435209     0.420647     0.080147    Uiso  ? N
   N19        1.0     0.232856     0.545803     0.825630    Uiso  ? N
   N20        1.0     0.112601     0.426746     0.590227    Uiso  ? N
   N21        1.0     0.902622     0.512736     0.336032    Uiso  ? N
   N22        1.0     0.795494     0.423161     0.071810    Uiso  ? N
   N23        1.0     0.558115     0.534661     0.836078    Uiso  ? N
   N24        1.0     0.435027     0.447758     0.579132    Uiso  ? N
   N25        1.0     0.227471     0.854629     0.375477    Uiso  ? N
   N26        1.0     0.110601     0.748176     0.138111    Uiso  ? N
   N27        1.0     0.907915     0.863814     0.890899    Uiso  ? N
   N28        1.0     0.773372     0.761033     0.584322    Uiso  ? N
   N29        1.0     0.533234     0.886524     0.335225    Uiso  ? N
   N30        1.0     0.449221     0.755685     0.089419    Uiso  ? N
   N31        1.0     0.222134     0.874221     0.871564    Uiso  ? N
   N32        1.0     0.107007     0.768320     0.628860    Uiso  ? N
   N33        1.0     0.912677     0.856966     0.381337    Uiso  ? N
   N34        1.0     0.793788     0.748732     0.123678    Uiso  ? N
   N35        1.0     0.540620     0.881793     0.835598    Uiso  ? N
   N36        1.0     0.447915     0.757777     0.592077    Uiso  ? N
