
#======================================================================
# CRYSTAL DATA
#----------------------------------------------------------------------
data_VESTA_phase_1

_chemical_name_common                  'Mg   Al   Hf   N                      '
_cell_length_a                         9.857409
_cell_length_b                         9.864532
_cell_length_c                         10.009242
_cell_angle_alpha                      89.854507
_cell_angle_beta                       89.486946
_cell_angle_gamma                      60.003674
_cell_volume                           842.885574
_space_group_name_H-M_alt              'P 1'
_space_group_IT_number                 1

loop_
_space_group_symop_operation_xyz
   'x, y, z'

loop_
   _atom_site_label
   _atom_site_occupancy
   _atom_site_fract_x
   _atom_site_fract_y
   _atom_site_fract_z
   _atom_site_adp_type
   _atom_site_U_iso_or_equiv
   _atom_site_type_symbol
   Mg1        1.0     0.120418     0.089654     0.371481    Uiso  ? Mg
   Mg2        1.0     0.567492     0.532326     0.119073    Uiso  ? Mg
   Mg3        1.0     0.219160     0.870345     0.075571    Uiso  ? Mg
   Mg4        1.0     0.769927     0.758580     0.886240    Uiso  ? Mg
   Mg5        1.0     0.546259     0.881136     0.116118    Uiso  ? Mg
   Al1        1.0     0.219905     0.211928     0.133195    Uiso  ? Al
   Al2        1.0     0.900011     0.205229     0.631490    Uiso  ? Al
   Al3        1.0     0.428253     0.094116     0.381589    Uiso  ? Al
   Al4        1.0     0.534374     0.211027     0.138523    Uiso  ? Al
   Al5        1.0     0.115446     0.094009     0.884079    Uiso  ? Al
   Al6        1.0     0.217941     0.193076     0.630091    Uiso  ? Al
   Al7        1.0     0.901178     0.221523     0.133473    Uiso  ? Al
   Al8        1.0     0.437036     0.093383     0.886873    Uiso  ? Al
   Al9        1.0     0.114246     0.417757     0.387813    Uiso  ? Al
   Al10       1.0     0.219611     0.544359     0.075742    Uiso  ? Al
   Al11       1.0     0.778727     0.431200     0.882327    Uiso  ? Al
   Al12       1.0     0.879804     0.541543     0.628444    Uiso  ? Al
   Al13       1.0     0.438006     0.440285     0.349887    Uiso  ? Al
   Al14       1.0     0.218384     0.549848     0.568029    Uiso  ? Al
   Al15       1.0     0.771746     0.428757     0.387294    Uiso  ? Al
   Al16       1.0     0.899155     0.526681     0.133575    Uiso  ? Al
   Al17       1.0     0.448150     0.435113     0.890714    Uiso  ? Al
   Al18       1.0     0.555658     0.541783     0.635305    Uiso  ? Al
   Al19       1.0     0.126512     0.749013     0.319298    Uiso  ? Al
   Al20       1.0     0.899770     0.862390     0.571299    Uiso  ? Al
   Al21       1.0     0.435394     0.758878     0.304005    Uiso  ? Al
   Al22       1.0     0.118812     0.767331     0.818321    Uiso  ? Al
   Al23       1.0     0.229887     0.864523     0.570022    Uiso  ? Al
   Al24       1.0     0.906011     0.850630     0.082052    Uiso  ? Al
   Al25       1.0     0.435804     0.768210     0.835074    Uiso  ? Al
   Al26       1.0     0.552540     0.871023     0.636201    Uiso  ? Al
   Hf1        1.0     0.777247     0.100588     0.891840    Uiso  ? Hf
   Hf2        1.0     0.781765     0.097694     0.351264    Uiso  ? Hf
   Hf3        1.0     0.545614     0.212746     0.618658    Uiso  ? Hf
   Hf4        1.0     0.111661     0.430228     0.858645    Uiso  ? Hf
   Hf5        1.0     0.771675     0.756136     0.350865    Uiso  ? Hf
   N1         1.0     0.226162     0.216318     0.322065    Uiso  ? N
   N2         1.0     0.105864     0.114849     0.075103    Uiso  ? N
   N3         1.0     0.896641     0.211542     0.824897    Uiso  ? N
   N4         1.0     0.789748     0.091916     0.581194    Uiso  ? N
   N5         1.0     0.535344     0.213482     0.338520    Uiso  ? N
   N6         1.0     0.431020     0.114286     0.072328    Uiso  ? N
   N7         1.0     0.229463     0.191044     0.820251    Uiso  ? N
   N8         1.0     0.110486     0.091404     0.582970    Uiso  ? N
   N9         1.0     0.887207     0.223430     0.320648    Uiso  ? N
   N10        1.0     0.774340     0.095401     0.108898    Uiso  ? N
   N11        1.0     0.539279     0.215223     0.830752    Uiso  ? N
   N12        1.0     0.431881     0.088049     0.573673    Uiso  ? N
   N13        1.0     0.218640     0.537199     0.374648    Uiso  ? N
   N14        1.0     0.110292     0.428573     0.072450    Uiso  ? N
   N15        1.0     0.877499     0.537069     0.816020    Uiso  ? N
   N16        1.0     0.777260     0.425079     0.578847    Uiso  ? N
   N17        1.0     0.560935     0.534206     0.337456    Uiso  ? N
   N18        1.0     0.439650     0.419815     0.091939    Uiso  ? N
   N19        1.0     0.230424     0.555764     0.875304    Uiso  ? N
   N20        1.0     0.110481     0.424921     0.591774    Uiso  ? N
   N21        1.0     0.901431     0.512933     0.330081    Uiso  ? N
   N22        1.0     0.798152     0.422749     0.067717    Uiso  ? N
   N23        1.0     0.562460     0.532105     0.835337    Uiso  ? N
   N24        1.0     0.435538     0.447130     0.589407    Uiso  ? N
   N25        1.0     0.233855     0.846399     0.379568    Uiso  ? N
   N26        1.0     0.109580     0.748973     0.135100    Uiso  ? N
   N27        1.0     0.908358     0.863638     0.886181    Uiso  ? N
   N28        1.0     0.774055     0.761242     0.578441    Uiso  ? N
   N29        1.0     0.533618     0.883951     0.337480    Uiso  ? N
   N30        1.0     0.440529     0.759694     0.116236    Uiso  ? N
   N31        1.0     0.217944     0.877028     0.863612    Uiso  ? N
   N32        1.0     0.108767     0.760710     0.628064    Uiso  ? N
   N33        1.0     0.913152     0.858196     0.376101    Uiso  ? N
   N34        1.0     0.792761     0.749849     0.117643    Uiso  ? N
   N35        1.0     0.544288     0.885862     0.831089    Uiso  ? N
   N36        1.0     0.441683     0.761299     0.632033    Uiso  ? N
