
#======================================================================
# CRYSTAL DATA
#----------------------------------------------------------------------
data_VESTA_phase_1

_chemical_name_common                  'Mg   Al   Hf   N                      '
_cell_length_a                         9.858627
_cell_length_b                         9.874681
_cell_length_c                         10.008923
_cell_angle_alpha                      89.864372
_cell_angle_beta                       89.555763
_cell_angle_gamma                      59.979912
_cell_volume                           843.637438
_space_group_name_H-M_alt              'P 1'
_space_group_IT_number                 1

loop_
_space_group_symop_operation_xyz
   'x, y, z'

loop_
   _atom_site_label
   _atom_site_occupancy
   _atom_site_fract_x
   _atom_site_fract_y
   _atom_site_fract_z
   _atom_site_adp_type
   _atom_site_U_iso_or_equiv
   _atom_site_type_symbol
   Mg1        1.0     0.120547     0.090068     0.371363    Uiso  ? Mg
   Mg2        1.0     0.565350     0.532428     0.112039    Uiso  ? Mg
   Mg3        1.0     0.219070     0.870108     0.076397    Uiso  ? Mg
   Mg4        1.0     0.769935     0.758557     0.886505    Uiso  ? Mg
   Mg5        1.0     0.546004     0.880759     0.116462    Uiso  ? Mg
   Al1        1.0     0.219805     0.212523     0.133247    Uiso  ? Al
   Al2        1.0     0.900230     0.204996     0.631698    Uiso  ? Al
   Al3        1.0     0.428339     0.093223     0.382118    Uiso  ? Al
   Al4        1.0     0.535231     0.208453     0.138963    Uiso  ? Al
   Al5        1.0     0.115374     0.093870     0.884449    Uiso  ? Al
   Al6        1.0     0.217513     0.193276     0.630548    Uiso  ? Al
   Al7        1.0     0.901281     0.222046     0.133882    Uiso  ? Al
   Al8        1.0     0.437273     0.093241     0.886332    Uiso  ? Al
   Al9        1.0     0.115360     0.418107     0.388728    Uiso  ? Al
   Al10       1.0     0.223704     0.542749     0.074011    Uiso  ? Al
   Al11       1.0     0.779592     0.431024     0.882609    Uiso  ? Al
   Al12       1.0     0.880668     0.541364     0.628508    Uiso  ? Al
   Al13       1.0     0.434295     0.440968     0.318665    Uiso  ? Al
   Al14       1.0     0.220080     0.549593     0.569280    Uiso  ? Al
   Al15       1.0     0.771252     0.428968     0.386984    Uiso  ? Al
   Al16       1.0     0.899391     0.526763     0.133899    Uiso  ? Al
   Al17       1.0     0.442829     0.439533     0.840116    Uiso  ? Al
   Al18       1.0     0.557690     0.544560     0.630803    Uiso  ? Al
   Al19       1.0     0.127279     0.748051     0.320162    Uiso  ? Al
   Al20       1.0     0.900247     0.861930     0.571315    Uiso  ? Al
   Al21       1.0     0.435992     0.757450     0.304943    Uiso  ? Al
   Al22       1.0     0.117944     0.768445     0.818965    Uiso  ? Al
   Al23       1.0     0.229286     0.865169     0.569758    Uiso  ? Al
   Al24       1.0     0.906668     0.849591     0.082357    Uiso  ? Al
   Al25       1.0     0.435972     0.768946     0.835008    Uiso  ? Al
   Al26       1.0     0.552663     0.871160     0.636349    Uiso  ? Al
   Hf1        1.0     0.776356     0.101138     0.892041    Uiso  ? Hf
   Hf2        1.0     0.783174     0.096787     0.351033    Uiso  ? Hf
   Hf3        1.0     0.546631     0.210775     0.612536    Uiso  ? Hf
   Hf4        1.0     0.111372     0.429742     0.859535    Uiso  ? Hf
   Hf5        1.0     0.771666     0.756055     0.350892    Uiso  ? Hf
   N1         1.0     0.226491     0.216781     0.322122    Uiso  ? N
   N2         1.0     0.105891     0.114846     0.075363    Uiso  ? N
   N3         1.0     0.896195     0.211713     0.825161    Uiso  ? N
   N4         1.0     0.791075     0.091172     0.581315    Uiso  ? N
   N5         1.0     0.537310     0.211071     0.346052    Uiso  ? N
   N6         1.0     0.431094     0.113957     0.071898    Uiso  ? N
   N7         1.0     0.229092     0.191035     0.820671    Uiso  ? N
   N8         1.0     0.110387     0.091596     0.583106    Uiso  ? N
   N9         1.0     0.887267     0.223881     0.320710    Uiso  ? N
   N10        1.0     0.773223     0.095747     0.109405    Uiso  ? N
   N11        1.0     0.540231     0.212396     0.828759    Uiso  ? N
   N12        1.0     0.431167     0.087320     0.574419    Uiso  ? N
   N13        1.0     0.222307     0.536256     0.379329    Uiso  ? N
   N14        1.0     0.110306     0.428834     0.072134    Uiso  ? N
   N15        1.0     0.877830     0.537078     0.816190    Uiso  ? N
   N16        1.0     0.778396     0.424676     0.578839    Uiso  ? N
   N17        1.0     0.558825     0.534387     0.343581    Uiso  ? N
   N18        1.0     0.433840     0.421895     0.122256    Uiso  ? N
   N19        1.0     0.230888     0.555826     0.877953    Uiso  ? N
   N20        1.0     0.110873     0.424758     0.592561    Uiso  ? N
   N21        1.0     0.901981     0.512989     0.330410    Uiso  ? N
   N22        1.0     0.798073     0.422919     0.068135    Uiso  ? N
   N23        1.0     0.564471     0.535186     0.836646    Uiso  ? N
   N24        1.0     0.430548     0.449577     0.623778    Uiso  ? N
   N25        1.0     0.233267     0.847219     0.379433    Uiso  ? N
   N26        1.0     0.110269     0.747495     0.135585    Uiso  ? N
   N27        1.0     0.908140     0.863995     0.886767    Uiso  ? N
   N28        1.0     0.774103     0.761217     0.578723    Uiso  ? N
   N29        1.0     0.533491     0.883557     0.337655    Uiso  ? N
   N30        1.0     0.440589     0.759219     0.117158    Uiso  ? N
   N31        1.0     0.218135     0.876971     0.864040    Uiso  ? N
   N32        1.0     0.108818     0.760805     0.628883    Uiso  ? N
   N33        1.0     0.913717     0.857281     0.376351    Uiso  ? N
   N34        1.0     0.792561     0.749852     0.117673    Uiso  ? N
   N35        1.0     0.544341     0.885851     0.831123    Uiso  ? N
   N36        1.0     0.441108     0.762607     0.631614    Uiso  ? N
