
#======================================================================
# CRYSTAL DATA
#----------------------------------------------------------------------
data_VESTA_phase_1

_chemical_name_common                  'Mg   Al   Hf   N                      '
_cell_length_a                         9.845746
_cell_length_b                         9.863172
_cell_length_c                         9.962256
_cell_angle_alpha                      89.965370
_cell_angle_beta                       89.428284
_cell_angle_gamma                      60.124146
_cell_volume                           838.819216
_space_group_name_H-M_alt              'P 1'
_space_group_IT_number                 1

loop_
_space_group_symop_operation_xyz
   'x, y, z'

loop_
   _atom_site_label
   _atom_site_occupancy
   _atom_site_fract_x
   _atom_site_fract_y
   _atom_site_fract_z
   _atom_site_adp_type
   _atom_site_U_iso_or_equiv
   _atom_site_type_symbol
   Mg1        1.0     0.116986     0.095181     0.369023    Uiso  ? Mg
   Mg2        1.0     0.566794     0.524775     0.120059    Uiso  ? Mg
   Mg3        1.0     0.211747     0.874599     0.087190    Uiso  ? Mg
   Mg4        1.0     0.772229     0.757999     0.881355    Uiso  ? Mg
   Mg5        1.0     0.551322     0.884020     0.113665    Uiso  ? Mg
   Al1        1.0     0.220921     0.211678     0.134631    Uiso  ? Al
   Al2        1.0     0.900012     0.204764     0.630159    Uiso  ? Al
   Al3        1.0     0.428443     0.094117     0.380893    Uiso  ? Al
   Al4        1.0     0.530376     0.218004     0.140019    Uiso  ? Al
   Al5        1.0     0.117837     0.090289     0.885074    Uiso  ? Al
   Al6        1.0     0.218300     0.191900     0.629564    Uiso  ? Al
   Al7        1.0     0.900087     0.222871     0.133096    Uiso  ? Al
   Al8        1.0     0.436825     0.093478     0.886260    Uiso  ? Al
   Al9        1.0     0.115944     0.419801     0.390696    Uiso  ? Al
   Al10       1.0     0.223925     0.531336     0.128289    Uiso  ? Al
   Al11       1.0     0.778421     0.429883     0.881341    Uiso  ? Al
   Al12       1.0     0.879497     0.540946     0.628249    Uiso  ? Al
   Al13       1.0     0.439754     0.446596     0.383155    Uiso  ? Al
   Al14       1.0     0.218766     0.547461     0.607282    Uiso  ? Al
   Al15       1.0     0.770164     0.431276     0.387519    Uiso  ? Al
   Al16       1.0     0.897893     0.527375     0.133951    Uiso  ? Al
   Al17       1.0     0.439853     0.437249     0.886801    Uiso  ? Al
   Al18       1.0     0.552434     0.549557     0.640306    Uiso  ? Al
   Al19       1.0     0.123082     0.751510     0.322053    Uiso  ? Al
   Al20       1.0     0.898248     0.864106     0.570247    Uiso  ? Al
   Al21       1.0     0.438400     0.759350     0.300634    Uiso  ? Al
   Al22       1.0     0.121488     0.769610     0.813488    Uiso  ? Al
   Al23       1.0     0.233336     0.865009     0.560722    Uiso  ? Al
   Al24       1.0     0.908916     0.846313     0.079003    Uiso  ? Al
   Al25       1.0     0.441571     0.762387     0.894797    Uiso  ? Al
   Al26       1.0     0.546722     0.866801     0.642822    Uiso  ? Al
   Hf1        1.0     0.776289     0.100454     0.890907    Uiso  ? Hf
   Hf2        1.0     0.780709     0.097796     0.346944    Uiso  ? Hf
   Hf3        1.0     0.547558     0.209271     0.615962    Uiso  ? Hf
   Hf4        1.0     0.112441     0.429550     0.863166    Uiso  ? Hf
   Hf5        1.0     0.769754     0.756236     0.352920    Uiso  ? Hf
   N1         1.0     0.226403     0.218073     0.323323    Uiso  ? N
   N2         1.0     0.105903     0.116170     0.077542    Uiso  ? N
   N3         1.0     0.897983     0.209434     0.825050    Uiso  ? N
   N4         1.0     0.789542     0.091644     0.579991    Uiso  ? N
   N5         1.0     0.534165     0.218381     0.341149    Uiso  ? N
   N6         1.0     0.430922     0.116929     0.072689    Uiso  ? N
   N7         1.0     0.229033     0.190596     0.820466    Uiso  ? N
   N8         1.0     0.110477     0.091187     0.580252    Uiso  ? N
   N9         1.0     0.884134     0.226276     0.321005    Uiso  ? N
   N10        1.0     0.773790     0.096725     0.108908    Uiso  ? N
   N11        1.0     0.539558     0.213511     0.826421    Uiso  ? N
   N12        1.0     0.433674     0.084408     0.574188    Uiso  ? N
   N13        1.0     0.222060     0.534102     0.354556    Uiso  ? N
   N14        1.0     0.112027     0.429714     0.075997    Uiso  ? N
   N15        1.0     0.878982     0.534941     0.816386    Uiso  ? N
   N16        1.0     0.775328     0.425476     0.579843    Uiso  ? N
   N17        1.0     0.560296     0.537121     0.330488    Uiso  ? N
   N18        1.0     0.435115     0.420528     0.076205    Uiso  ? N
   N19        1.0     0.233840     0.546584     0.821345    Uiso  ? N
   N20        1.0     0.110319     0.424424     0.589473    Uiso  ? N
   N21        1.0     0.901748     0.513855     0.330865    Uiso  ? N
   N22        1.0     0.797579     0.422958     0.067413    Uiso  ? N
   N23        1.0     0.559911     0.533113     0.837250    Uiso  ? N
   N24        1.0     0.439308     0.446584     0.576267    Uiso  ? N
   N25        1.0     0.231659     0.852826     0.365007    Uiso  ? N
   N26        1.0     0.110013     0.746114     0.134470    Uiso  ? N
   N27        1.0     0.910450     0.863229     0.883442    Uiso  ? N
   N28        1.0     0.772291     0.762249     0.580780    Uiso  ? N
   N29        1.0     0.532472     0.886674     0.326733    Uiso  ? N
   N30        1.0     0.446104     0.757006     0.095286    Uiso  ? N
   N31        1.0     0.221414     0.873132     0.871017    Uiso  ? N
   N32        1.0     0.107790     0.768853     0.619740    Uiso  ? N
   N33        1.0     0.910272     0.858606     0.374830    Uiso  ? N
   N34        1.0     0.794493     0.748153     0.116020    Uiso  ? N
   N35        1.0     0.542032     0.881880     0.838070    Uiso  ? N
   N36        1.0     0.444218     0.759379     0.606189    Uiso  ? N
