
#======================================================================
# CRYSTAL DATA
#----------------------------------------------------------------------
data_VESTA_phase_1

_chemical_name_common                  'Mg   Al   Hf   N                      '
_cell_length_a                         9.809642
_cell_length_b                         9.827301
_cell_length_c                         10.152011
_cell_angle_alpha                      89.843285
_cell_angle_beta                       89.691040
_cell_angle_gamma                      60.050404
_cell_volume                           847.977166
_space_group_name_H-M_alt              'P 1'
_space_group_IT_number                 1

loop_
_space_group_symop_operation_xyz
   'x, y, z'

loop_
   _atom_site_label
   _atom_site_occupancy
   _atom_site_fract_x
   _atom_site_fract_y
   _atom_site_fract_z
   _atom_site_adp_type
   _atom_site_U_iso_or_equiv
   _atom_site_type_symbol
   Mg1        1.0     0.119513     0.090427     0.373966    Uiso  ? Mg
   Mg2        1.0     0.552327     0.539774     0.076325    Uiso  ? Mg
   Mg3        1.0     0.223788     0.867805     0.076296    Uiso  ? Mg
   Mg4        1.0     0.768144     0.756755     0.888830    Uiso  ? Mg
   Mg5        1.0     0.544700     0.880252     0.123266    Uiso  ? Mg
   Al1        1.0     0.220779     0.212083     0.134084    Uiso  ? Al
   Al2        1.0     0.900455     0.205311     0.635736    Uiso  ? Al
   Al3        1.0     0.428845     0.093765     0.387961    Uiso  ? Al
   Al4        1.0     0.533954     0.214922     0.110483    Uiso  ? Al
   Al5        1.0     0.117107     0.092572     0.886500    Uiso  ? Al
   Al6        1.0     0.217001     0.193628     0.633720    Uiso  ? Al
   Al7        1.0     0.900717     0.223827     0.129392    Uiso  ? Al
   Al8        1.0     0.437601     0.091268     0.881502    Uiso  ? Al
   Al9        1.0     0.117487     0.416853     0.390247    Uiso  ? Al
   Al10       1.0     0.226321     0.543886     0.075036    Uiso  ? Al
   Al11       1.0     0.778020     0.432742     0.883812    Uiso  ? Al
   Al12       1.0     0.881828     0.539023     0.631180    Uiso  ? Al
   Al13       1.0     0.434567     0.439279     0.325116    Uiso  ? Al
   Al14       1.0     0.217049     0.550372     0.571028    Uiso  ? Al
   Al15       1.0     0.780633     0.422686     0.386624    Uiso  ? Al
   Al16       1.0     0.898726     0.528178     0.135475    Uiso  ? Al
   Al17       1.0     0.441663     0.447641     0.815431    Uiso  ? Al
   Al18       1.0     0.549645     0.550200     0.569457    Uiso  ? Al
   Al19       1.0     0.126844     0.749624     0.321643    Uiso  ? Al
   Al20       1.0     0.899979     0.863536     0.574039    Uiso  ? Al
   Al21       1.0     0.436157     0.756978     0.313444    Uiso  ? Al
   Al22       1.0     0.119551     0.766540     0.820635    Uiso  ? Al
   Al23       1.0     0.225869     0.866916     0.571329    Uiso  ? Al
   Al24       1.0     0.906928     0.849105     0.077724    Uiso  ? Al
   Al25       1.0     0.439502     0.761058     0.821553    Uiso  ? Al
   Al26       1.0     0.555290     0.868983     0.635602    Uiso  ? Al
   Hf1        1.0     0.776835     0.097950     0.870653    Uiso  ? Hf
   Hf2        1.0     0.777732     0.095026     0.327691    Uiso  ? Hf
   Hf3        1.0     0.548727     0.209534     0.603053    Uiso  ? Hf
   Hf4        1.0     0.112735     0.428917     0.864996    Uiso  ? Hf
   Hf5        1.0     0.775009     0.754898     0.354000    Uiso  ? Hf
   N1         1.0     0.229328     0.215700     0.320770    Uiso  ? N
   N2         1.0     0.106880     0.114061     0.074585    Uiso  ? N
   N3         1.0     0.898405     0.213872     0.827625    Uiso  ? N
   N4         1.0     0.794222     0.084621     0.610161    Uiso  ? N
   N5         1.0     0.539647     0.215378     0.374953    Uiso  ? N
   N6         1.0     0.430309     0.112502     0.066725    Uiso  ? N
   N7         1.0     0.227952     0.191057     0.820632    Uiso  ? N
   N8         1.0     0.109217     0.092787     0.583161    Uiso  ? N
   N9         1.0     0.885937     0.220984     0.316351    Uiso  ? N
   N10        1.0     0.767516     0.098878     0.103886    Uiso  ? N
   N11        1.0     0.534700     0.217173     0.826898    Uiso  ? N
   N12        1.0     0.430509     0.084608     0.577421    Uiso  ? N
   N13        1.0     0.220994     0.538720     0.384141    Uiso  ? N
   N14        1.0     0.111226     0.429723     0.073519    Uiso  ? N
   N15        1.0     0.879337     0.536141     0.816195    Uiso  ? N
   N16        1.0     0.782204     0.421407     0.576388    Uiso  ? N
   N17        1.0     0.554352     0.537697     0.378649    Uiso  ? N
   N18        1.0     0.432376     0.424536     0.139339    Uiso  ? N
   N19        1.0     0.235201     0.553845     0.880399    Uiso  ? N
   N20        1.0     0.111732     0.422867     0.591463    Uiso  ? N
   N21        1.0     0.904691     0.511003     0.328611    Uiso  ? N
   N22        1.0     0.796104     0.426102     0.069542    Uiso  ? N
   N23        1.0     0.558407     0.539075     0.863335    Uiso  ? N
   N24        1.0     0.430103     0.453561     0.625610    Uiso  ? N
   N25        1.0     0.232449     0.847823     0.384786    Uiso  ? N
   N26        1.0     0.109137     0.749327     0.138635    Uiso  ? N
   N27        1.0     0.910359     0.859696     0.889024    Uiso  ? N
   N28        1.0     0.776266     0.757706     0.577286    Uiso  ? N
   N29        1.0     0.536817     0.884615     0.341393    Uiso  ? N
   N30        1.0     0.440660     0.755902     0.134478    Uiso  ? N
   N31        1.0     0.222736     0.874235     0.865108    Uiso  ? N
   N32        1.0     0.109044     0.760013     0.632864    Uiso  ? N
   N33        1.0     0.912448     0.862825     0.382150    Uiso  ? N
   N34        1.0     0.791668     0.751663     0.119914    Uiso  ? N
   N35        1.0     0.544736     0.883045     0.826675    Uiso  ? N
   N36        1.0     0.442663     0.758916     0.627720    Uiso  ? N
