
#======================================================================
# CRYSTAL DATA
#----------------------------------------------------------------------
data_VESTA_phase_1

_chemical_name_common                  'Mg   Al   Hf   N                      '
_cell_length_a                         9.827198
_cell_length_b                         9.849721
_cell_length_c                         10.006441
_cell_angle_alpha                      90.006241
_cell_angle_beta                       89.487686
_cell_angle_gamma                      60.143715
_cell_volume                           839.977505
_space_group_name_H-M_alt              'P 1'
_space_group_IT_number                 1

loop_
_space_group_symop_operation_xyz
   'x, y, z'

loop_
   _atom_site_label
   _atom_site_occupancy
   _atom_site_fract_x
   _atom_site_fract_y
   _atom_site_fract_z
   _atom_site_adp_type
   _atom_site_U_iso_or_equiv
   _atom_site_type_symbol
   Mg1        1.0     0.116690     0.095548     0.370343    Uiso  ? Mg
   Mg2        1.0     0.566140     0.524316     0.120240    Uiso  ? Mg
   Mg3        1.0     0.211692     0.874768     0.085624    Uiso  ? Mg
   Mg4        1.0     0.772025     0.757193     0.881256    Uiso  ? Mg
   Mg5        1.0     0.551478     0.884162     0.114211    Uiso  ? Mg
   Al1        1.0     0.221173     0.210722     0.135762    Uiso  ? Al
   Al2        1.0     0.899927     0.204534     0.630325    Uiso  ? Al
   Al3        1.0     0.428703     0.093801     0.381296    Uiso  ? Al
   Al4        1.0     0.530308     0.218217     0.139627    Uiso  ? Al
   Al5        1.0     0.117330     0.091079     0.884810    Uiso  ? Al
   Al6        1.0     0.217770     0.194188     0.629515    Uiso  ? Al
   Al7        1.0     0.899756     0.222702     0.132903    Uiso  ? Al
   Al8        1.0     0.436501     0.093775     0.885975    Uiso  ? Al
   Al9        1.0     0.118202     0.420584     0.389356    Uiso  ? Al
   Al10       1.0     0.224896     0.529639     0.139531    Uiso  ? Al
   Al11       1.0     0.778124     0.429702     0.881132    Uiso  ? Al
   Al12       1.0     0.881864     0.540149     0.628016    Uiso  ? Al
   Al13       1.0     0.438143     0.447254     0.382353    Uiso  ? Al
   Al14       1.0     0.220638     0.546059     0.624435    Uiso  ? Al
   Al15       1.0     0.770370     0.431029     0.387756    Uiso  ? Al
   Al16       1.0     0.897058     0.527433     0.135372    Uiso  ? Al
   Al17       1.0     0.438945     0.437641     0.888294    Uiso  ? Al
   Al18       1.0     0.552293     0.549502     0.639510    Uiso  ? Al
   Al19       1.0     0.122846     0.752689     0.319725    Uiso  ? Al
   Al20       1.0     0.899010     0.863375     0.569748    Uiso  ? Al
   Al21       1.0     0.438298     0.759234     0.300184    Uiso  ? Al
   Al22       1.0     0.119455     0.772380     0.814397    Uiso  ? Al
   Al23       1.0     0.233478     0.864683     0.560704    Uiso  ? Al
   Al24       1.0     0.909144     0.845864     0.078214    Uiso  ? Al
   Al25       1.0     0.441936     0.762255     0.894800    Uiso  ? Al
   Al26       1.0     0.546963     0.866740     0.642851    Uiso  ? Al
   Hf1        1.0     0.774911     0.101142     0.891503    Uiso  ? Hf
   Hf2        1.0     0.781065     0.097152     0.346528    Uiso  ? Hf
   Hf3        1.0     0.547552     0.209768     0.615221    Uiso  ? Hf
   Hf4        1.0     0.112184     0.429447     0.870239    Uiso  ? Hf
   Hf5        1.0     0.769800     0.755868     0.353592    Uiso  ? Hf
   N1         1.0     0.226677     0.217343     0.323495    Uiso  ? N
   N2         1.0     0.105573     0.116537     0.076484    Uiso  ? N
   N3         1.0     0.897307     0.209147     0.824581    Uiso  ? N
   N4         1.0     0.789681     0.091508     0.578641    Uiso  ? N
   N5         1.0     0.534559     0.217849     0.340725    Uiso  ? N
   N6         1.0     0.430785     0.116849     0.071858    Uiso  ? N
   N7         1.0     0.227881     0.192538     0.820167    Uiso  ? N
   N8         1.0     0.110680     0.091793     0.580571    Uiso  ? N
   N9         1.0     0.884149     0.226250     0.320146    Uiso  ? N
   N10        1.0     0.773404     0.097051     0.108494    Uiso  ? N
   N11        1.0     0.538580     0.214352     0.825075    Uiso  ? N
   N12        1.0     0.433918     0.084475     0.574083    Uiso  ? N
   N13        1.0     0.225111     0.530418     0.336714    Uiso  ? N
   N14        1.0     0.111823     0.429764     0.079392    Uiso  ? N
   N15        1.0     0.880968     0.533245     0.815935    Uiso  ? N
   N16        1.0     0.775749     0.425302     0.579594    Uiso  ? N
   N17        1.0     0.560281     0.536852     0.330116    Uiso  ? N
   N18        1.0     0.433765     0.420620     0.075275    Uiso  ? N
   N19        1.0     0.233468     0.546085     0.819050    Uiso  ? N
   N20        1.0     0.112518     0.426336     0.586440    Uiso  ? N
   N21        1.0     0.902072     0.513704     0.331144    Uiso  ? N
   N22        1.0     0.797200     0.422973     0.066670    Uiso  ? N
   N23        1.0     0.559180     0.533046     0.836275    Uiso  ? N
   N24        1.0     0.436243     0.448097     0.574113    Uiso  ? N
   N25        1.0     0.231812     0.852662     0.365891    Uiso  ? N
   N26        1.0     0.109925     0.747270     0.132820    Uiso  ? N
   N27        1.0     0.909287     0.863580     0.883349    Uiso  ? N
   N28        1.0     0.772520     0.761842     0.580697    Uiso  ? N
   N29        1.0     0.532381     0.886606     0.326374    Uiso  ? N
   N30        1.0     0.446333     0.756839     0.094874    Uiso  ? N
   N31        1.0     0.221670     0.873670     0.870822    Uiso  ? N
   N32        1.0     0.108251     0.768435     0.620819    Uiso  ? N
   N33        1.0     0.911292     0.857424     0.375430    Uiso  ? N
   N34        1.0     0.794411     0.747996     0.116060    Uiso  ? N
   N35        1.0     0.541836     0.882032     0.837385    Uiso  ? N
   N36        1.0     0.444396     0.759301     0.606016    Uiso  ? N
