
#======================================================================
# CRYSTAL DATA
#----------------------------------------------------------------------
data_VESTA_phase_1

_chemical_name_common                  'Mg   Al   Hf   N                      '
_cell_length_a                         9.841956
_cell_length_b                         9.852602
_cell_length_c                         10.010306
_cell_angle_alpha                      89.889427
_cell_angle_beta                       89.392960
_cell_angle_gamma                      60.102657
_cell_volume                           841.455337
_space_group_name_H-M_alt              'P 1'
_space_group_IT_number                 1

loop_
_space_group_symop_operation_xyz
   'x, y, z'

loop_
   _atom_site_label
   _atom_site_occupancy
   _atom_site_fract_x
   _atom_site_fract_y
   _atom_site_fract_z
   _atom_site_adp_type
   _atom_site_U_iso_or_equiv
   _atom_site_type_symbol
   Mg1        1.0     0.118543     0.092343     0.369698    Uiso  ? Mg
   Mg2        1.0     0.567891     0.524910     0.121143    Uiso  ? Mg
   Mg3        1.0     0.211989     0.874870     0.083965    Uiso  ? Mg
   Mg4        1.0     0.772217     0.758277     0.885063    Uiso  ? Mg
   Mg5        1.0     0.550237     0.884241     0.113707    Uiso  ? Mg
   Al1        1.0     0.219951     0.214114     0.133433    Uiso  ? Al
   Al2        1.0     0.899876     0.204075     0.630455    Uiso  ? Al
   Al3        1.0     0.428247     0.093737     0.381146    Uiso  ? Al
   Al4        1.0     0.528635     0.219248     0.142489    Uiso  ? Al
   Al5        1.0     0.116852     0.091411     0.885418    Uiso  ? Al
   Al6        1.0     0.219119     0.189751     0.629936    Uiso  ? Al
   Al7        1.0     0.900785     0.222678     0.134132    Uiso  ? Al
   Al8        1.0     0.436842     0.093915     0.887229    Uiso  ? Al
   Al9        1.0     0.114890     0.418655     0.389177    Uiso  ? Al
   Al10       1.0     0.221573     0.542548     0.070963    Uiso  ? Al
   Al11       1.0     0.778753     0.429848     0.882336    Uiso  ? Al
   Al12       1.0     0.877711     0.541740     0.628534    Uiso  ? Al
   Al13       1.0     0.440485     0.445898     0.382616    Uiso  ? Al
   Al14       1.0     0.214361     0.551318     0.573614    Uiso  ? Al
   Al15       1.0     0.770904     0.430523     0.387526    Uiso  ? Al
   Al16       1.0     0.899945     0.526719     0.132849    Uiso  ? Al
   Al17       1.0     0.448115     0.433185     0.887798    Uiso  ? Al
   Al18       1.0     0.553100     0.548556     0.640866    Uiso  ? Al
   Al19       1.0     0.126178     0.745704     0.318324    Uiso  ? Al
   Al20       1.0     0.899170     0.862852     0.570087    Uiso  ? Al
   Al21       1.0     0.437158     0.759473     0.298647    Uiso  ? Al
   Al22       1.0     0.120489     0.769457     0.816933    Uiso  ? Al
   Al23       1.0     0.233574     0.863203     0.563611    Uiso  ? Al
   Al24       1.0     0.907086     0.849205     0.081575    Uiso  ? Al
   Al25       1.0     0.441072     0.763184     0.889266    Uiso  ? Al
   Al26       1.0     0.547805     0.867060     0.643791    Uiso  ? Al
   Hf1        1.0     0.775066     0.101997     0.893844    Uiso  ? Hf
   Hf2        1.0     0.781556     0.096980     0.347651    Uiso  ? Hf
   Hf3        1.0     0.547584     0.209216     0.616138    Uiso  ? Hf
   Hf4        1.0     0.110931     0.428730     0.856010    Uiso  ? Hf
   Hf5        1.0     0.769945     0.755974     0.352081    Uiso  ? Hf
   N1         1.0     0.226308     0.217744     0.322322    Uiso  ? N
   N2         1.0     0.106008     0.116260     0.077146    Uiso  ? N
   N3         1.0     0.897344     0.209712     0.824730    Uiso  ? N
   N4         1.0     0.789978     0.090846     0.578877    Uiso  ? N
   N5         1.0     0.533826     0.218657     0.342160    Uiso  ? N
   N6         1.0     0.430934     0.117511     0.072771    Uiso  ? N
   N7         1.0     0.230035     0.188855     0.819818    Uiso  ? N
   N8         1.0     0.110493     0.089984     0.580243    Uiso  ? N
   N9         1.0     0.885291     0.225327     0.321152    Uiso  ? N
   N10        1.0     0.774515     0.095777     0.111032    Uiso  ? N
   N11        1.0     0.539173     0.213830     0.825612    Uiso  ? N
   N12        1.0     0.433699     0.084157     0.573507    Uiso  ? N
   N13        1.0     0.218424     0.538230     0.379712    Uiso  ? N
   N14        1.0     0.110853     0.428649     0.070428    Uiso  ? N
   N15        1.0     0.876224     0.536909     0.815823    Uiso  ? N
   N16        1.0     0.775604     0.425001     0.578946    Uiso  ? N
   N17        1.0     0.560436     0.537330     0.331360    Uiso  ? N
   N18        1.0     0.441006     0.418494     0.077315    Uiso  ? N
   N19        1.0     0.229678     0.554723     0.866613    Uiso  ? N
   N20        1.0     0.110054     0.423653     0.594068    Uiso  ? N
   N21        1.0     0.902255     0.513271     0.329877    Uiso  ? N
   N22        1.0     0.798004     0.422785     0.067590    Uiso  ? N
   N23        1.0     0.561924     0.532287     0.836124    Uiso  ? N
   N24        1.0     0.438603     0.447116     0.580047    Uiso  ? N
   N25        1.0     0.232671     0.848742     0.368134    Uiso  ? N
   N26        1.0     0.110790     0.744828     0.134159    Uiso  ? N
   N27        1.0     0.908599     0.865504     0.886092    Uiso  ? N
   N28        1.0     0.772004     0.762022     0.579175    Uiso  ? N
   N29        1.0     0.531890     0.886165     0.326598    Uiso  ? N
   N30        1.0     0.445577     0.756879     0.094339    Uiso  ? N
   N31        1.0     0.220190     0.875014     0.870079    Uiso  ? N
   N32        1.0     0.108521     0.763910     0.626409    Uiso  ? N
   N33        1.0     0.912410     0.856988     0.374797    Uiso  ? N
   N34        1.0     0.794183     0.748589     0.116894    Uiso  ? N
   N35        1.0     0.543278     0.882846     0.838100    Uiso  ? N
   N36        1.0     0.442946     0.760185     0.614203    Uiso  ? N
