
#======================================================================
# CRYSTAL DATA
#----------------------------------------------------------------------
data_VESTA_phase_1

_chemical_name_common                  'Mg   Al   Hf   N                      '
_cell_length_a                         9.838971
_cell_length_b                         9.858669
_cell_length_c                         10.065804
_cell_angle_alpha                      89.869614
_cell_angle_beta                       89.671700
_cell_angle_gamma                      59.955154
_cell_volume                           845.168774
_space_group_name_H-M_alt              'P 1'
_space_group_IT_number                 1

loop_
_space_group_symop_operation_xyz
   'x, y, z'

loop_
   _atom_site_label
   _atom_site_occupancy
   _atom_site_fract_x
   _atom_site_fract_y
   _atom_site_fract_z
   _atom_site_adp_type
   _atom_site_U_iso_or_equiv
   _atom_site_type_symbol
   Mg1        1.0     0.121092     0.090608     0.371875    Uiso  ? Mg
   Mg2        1.0     0.556808     0.534325     0.084637    Uiso  ? Mg
   Mg3        1.0     0.222115     0.868246     0.076843    Uiso  ? Mg
   Mg4        1.0     0.769268     0.758957     0.887496    Uiso  ? Mg
   Mg5        1.0     0.544582     0.879532     0.118043    Uiso  ? Mg
   Al1        1.0     0.220539     0.212594     0.132991    Uiso  ? Al
   Al2        1.0     0.900271     0.204507     0.633190    Uiso  ? Al
   Al3        1.0     0.428085     0.092008     0.384270    Uiso  ? Al
   Al4        1.0     0.534144     0.209742     0.143103    Uiso  ? Al
   Al5        1.0     0.115729     0.092825     0.885463    Uiso  ? Al
   Al6        1.0     0.217275     0.193340     0.632549    Uiso  ? Al
   Al7        1.0     0.901036     0.222708     0.133332    Uiso  ? Al
   Al8        1.0     0.438475     0.093301     0.884611    Uiso  ? Al
   Al9        1.0     0.116408     0.417864     0.389490    Uiso  ? Al
   Al10       1.0     0.227889     0.541449     0.073623    Uiso  ? Al
   Al11       1.0     0.778050     0.431924     0.880948    Uiso  ? Al
   Al12       1.0     0.881527     0.540828     0.630645    Uiso  ? Al
   Al13       1.0     0.433676     0.442626     0.325117    Uiso  ? Al
   Al14       1.0     0.216600     0.550873     0.571139    Uiso  ? Al
   Al15       1.0     0.778314     0.425763     0.387892    Uiso  ? Al
   Al16       1.0     0.899001     0.526955     0.133420    Uiso  ? Al
   Al17       1.0     0.441315     0.445347     0.816588    Uiso  ? Al
   Al18       1.0     0.552828     0.549105     0.583906    Uiso  ? Al
   Al19       1.0     0.127971     0.747166     0.319665    Uiso  ? Al
   Al20       1.0     0.900497     0.861738     0.570723    Uiso  ? Al
   Al21       1.0     0.436379     0.756238     0.310638    Uiso  ? Al
   Al22       1.0     0.117075     0.769349     0.820865    Uiso  ? Al
   Al23       1.0     0.226587     0.867040     0.570035    Uiso  ? Al
   Al24       1.0     0.906776     0.849514     0.082332    Uiso  ? Al
   Al25       1.0     0.437918     0.763764     0.825746    Uiso  ? Al
   Al26       1.0     0.553688     0.870719     0.636582    Uiso  ? Al
   Hf1        1.0     0.771704     0.104649     0.893726    Uiso  ? Hf
   Hf2        1.0     0.785588     0.095053     0.350081    Uiso  ? Hf
   Hf3        1.0     0.548246     0.208641     0.606068    Uiso  ? Hf
   Hf4        1.0     0.112537     0.429085     0.861961    Uiso  ? Hf
   Hf5        1.0     0.772540     0.755511     0.350607    Uiso  ? Hf
   N1         1.0     0.227674     0.216878     0.321163    Uiso  ? N
   N2         1.0     0.106524     0.114298     0.075330    Uiso  ? N
   N3         1.0     0.895531     0.210832     0.825604    Uiso  ? N
   N4         1.0     0.793077     0.090205     0.578729    Uiso  ? N
   N5         1.0     0.538892     0.210426     0.354650    Uiso  ? N
   N6         1.0     0.432652     0.114334     0.070698    Uiso  ? N
   N7         1.0     0.228741     0.190583     0.821312    Uiso  ? N
   N8         1.0     0.110084     0.092286     0.583132    Uiso  ? N
   N9         1.0     0.887984     0.224013     0.319059    Uiso  ? N
   N10        1.0     0.771032     0.097184     0.111287    Uiso  ? N
   N11        1.0     0.539047     0.213027     0.821551    Uiso  ? N
   N12        1.0     0.430542     0.086030     0.574933    Uiso  ? N
   N13        1.0     0.221428     0.537501     0.383479    Uiso  ? N
   N14        1.0     0.111234     0.429234     0.072407    Uiso  ? N
   N15        1.0     0.878790     0.537134     0.817065    Uiso  ? N
   N16        1.0     0.783132     0.422567     0.578733    Uiso  ? N
   N17        1.0     0.554401     0.537938     0.378536    Uiso  ? N
   N18        1.0     0.432927     0.423823     0.137335    Uiso  ? N
   N19        1.0     0.233894     0.554333     0.877691    Uiso  ? N
   N20        1.0     0.111267     0.424034     0.592948    Uiso  ? N
   N21        1.0     0.903408     0.512421     0.328979    Uiso  ? N
   N22        1.0     0.796736     0.423657     0.068264    Uiso  ? N
   N23        1.0     0.561011     0.537065     0.850446    Uiso  ? N
   N24        1.0     0.429581     0.451147     0.623563    Uiso  ? N
   N25        1.0     0.231604     0.847953     0.381334    Uiso  ? N
   N26        1.0     0.111124     0.746564     0.135749    Uiso  ? N
   N27        1.0     0.906613     0.866608     0.888613    Uiso  ? N
   N28        1.0     0.774685     0.760389     0.578179    Uiso  ? N
   N29        1.0     0.534179     0.883364     0.339020    Uiso  ? N
   N30        1.0     0.441637     0.754752     0.128294    Uiso  ? N
   N31        1.0     0.220897     0.875270     0.864971    Uiso  ? N
   N32        1.0     0.107923     0.761676     0.631390    Uiso  ? N
   N33        1.0     0.914973     0.855706     0.376663    Uiso  ? N
   N34        1.0     0.791926     0.750336     0.118116    Uiso  ? N
   N35        1.0     0.543687     0.884705     0.829959    Uiso  ? N
   N36        1.0     0.440993     0.762210     0.628917    Uiso  ? N
