
#======================================================================
# CRYSTAL DATA
#----------------------------------------------------------------------
data_VESTA_phase_1

_chemical_name_common                  'Mg   Al   Hf   N                      '
_cell_length_a                         9.797833
_cell_length_b                         9.819064
_cell_length_c                         10.165930
_cell_angle_alpha                      89.827843
_cell_angle_beta                       89.539810
_cell_angle_gamma                      59.990299
_cell_volume                           846.878526
_space_group_name_H-M_alt              'P 1'
_space_group_IT_number                 1

loop_
_space_group_symop_operation_xyz
   'x, y, z'

loop_
   _atom_site_label
   _atom_site_occupancy
   _atom_site_fract_x
   _atom_site_fract_y
   _atom_site_fract_z
   _atom_site_adp_type
   _atom_site_U_iso_or_equiv
   _atom_site_type_symbol
   Mg1        1.0     0.118431     0.088804     0.359015    Uiso  ? Mg
   Mg2        1.0     0.558091     0.539175     0.074267    Uiso  ? Mg
   Mg3        1.0     0.227148     0.864375     0.082503    Uiso  ? Mg
   Mg4        1.0     0.777391     0.762773     0.821176    Uiso  ? Mg
   Mg5        1.0     0.551346     0.877491     0.120854    Uiso  ? Mg
   Al1        1.0     0.221926     0.216016     0.136200    Uiso  ? Al
   Al2        1.0     0.892216     0.206933     0.568453    Uiso  ? Al
   Al3        1.0     0.429493     0.094229     0.389369    Uiso  ? Al
   Al4        1.0     0.536044     0.221733     0.063037    Uiso  ? Al
   Al5        1.0     0.123078     0.090433     0.895654    Uiso  ? Al
   Al6        1.0     0.215043     0.190513     0.638214    Uiso  ? Al
   Al7        1.0     0.894168     0.224530     0.072782    Uiso  ? Al
   Al8        1.0     0.436093     0.086692     0.884794    Uiso  ? Al
   Al9        1.0     0.120237     0.414749     0.395437    Uiso  ? Al
   Al10       1.0     0.225550     0.542573     0.075128    Uiso  ? Al
   Al11       1.0     0.769116     0.434775     0.817248    Uiso  ? Al
   Al12       1.0     0.884568     0.532600     0.583302    Uiso  ? Al
   Al13       1.0     0.436329     0.433545     0.321818    Uiso  ? Al
   Al14       1.0     0.219602     0.550910     0.575342    Uiso  ? Al
   Al15       1.0     0.774729     0.426743     0.322335    Uiso  ? Al
   Al16       1.0     0.886386     0.539238     0.072363    Uiso  ? Al
   Al17       1.0     0.442173     0.449292     0.820571    Uiso  ? Al
   Al18       1.0     0.552726     0.546537     0.568167    Uiso  ? Al
   Al19       1.0     0.123000     0.750782     0.322800    Uiso  ? Al
   Al20       1.0     0.900740     0.866750     0.577115    Uiso  ? Al
   Al21       1.0     0.438283     0.754727     0.316084    Uiso  ? Al
   Al22       1.0     0.123649     0.765648     0.821730    Uiso  ? Al
   Al23       1.0     0.224931     0.868153     0.568043    Uiso  ? Al
   Al24       1.0     0.906111     0.846635     0.071700    Uiso  ? Al
   Al25       1.0     0.439381     0.762162     0.821449    Uiso  ? Al
   Al26       1.0     0.547911     0.871949     0.629069    Uiso  ? Al
   Hf1        1.0     0.788330     0.091840     0.848694    Uiso  ? Hf
   Hf2        1.0     0.771523     0.097462     0.308891    Uiso  ? Hf
   Hf3        1.0     0.549036     0.209789     0.598560    Uiso  ? Hf
   Hf4        1.0     0.114277     0.429997     0.856399    Uiso  ? Hf
   Hf5        1.0     0.779843     0.752252     0.349066    Uiso  ? Hf
   N1         1.0     0.229474     0.217439     0.323367    Uiso  ? N
   N2         1.0     0.111220     0.110634     0.088114    Uiso  ? N
   N3         1.0     0.895103     0.222345     0.881343    Uiso  ? N
   N4         1.0     0.794635     0.084308     0.634875    Uiso  ? N
   N5         1.0     0.543104     0.213683     0.386706    Uiso  ? N
   N6         1.0     0.432455     0.109432     0.068659    Uiso  ? N
   N7         1.0     0.227846     0.188857     0.823754    Uiso  ? N
   N8         1.0     0.108755     0.092022     0.583535    Uiso  ? N
   N9         1.0     0.870793     0.216972     0.379882    Uiso  ? N
   N10        1.0     0.771790     0.100481     0.096063    Uiso  ? N
   N11        1.0     0.536814     0.221613     0.854198    Uiso  ? N
   N12        1.0     0.427195     0.088998     0.580553    Uiso  ? N
   N13        1.0     0.220929     0.537743     0.387837    Uiso  ? N
   N14        1.0     0.113327     0.428320     0.070618    Uiso  ? N
   N15        1.0     0.874508     0.537391     0.873356    Uiso  ? N
   N16        1.0     0.773691     0.423960     0.628516    Uiso  ? N
   N17        1.0     0.556383     0.533595     0.380295    Uiso  ? N
   N18        1.0     0.435690     0.420180     0.136105    Uiso  ? N
   N19        1.0     0.235785     0.555616     0.881623    Uiso  ? N
   N20        1.0     0.115249     0.423237     0.608268    Uiso  ? N
   N21        1.0     0.897536     0.511972     0.393806    Uiso  ? N
   N22        1.0     0.792696     0.426003     0.138536    Uiso  ? N
   N23        1.0     0.557492     0.542033     0.867932    Uiso  ? N
   N24        1.0     0.432241     0.450185     0.631392    Uiso  ? N
   N25        1.0     0.231508     0.847200     0.382453    Uiso  ? N
   N26        1.0     0.107293     0.748987     0.139966    Uiso  ? N
   N27        1.0     0.913638     0.854122     0.886378    Uiso  ? N
   N28        1.0     0.779326     0.760807     0.599885    Uiso  ? N
   N29        1.0     0.539615     0.880667     0.353842    Uiso  ? N
   N30        1.0     0.446105     0.754583     0.137801    Uiso  ? N
   N31        1.0     0.223833     0.874360     0.870211    Uiso  ? N
   N32        1.0     0.111325     0.761302     0.633540    Uiso  ? N
   N33        1.0     0.905196     0.872356     0.388114    Uiso  ? N
   N34        1.0     0.798165     0.748864     0.138010    Uiso  ? N
   N35        1.0     0.542003     0.884376     0.821637    Uiso  ? N
   N36        1.0     0.440757     0.756920     0.626308    Uiso  ? N
