
#======================================================================
# CRYSTAL DATA
#----------------------------------------------------------------------
data_VESTA_phase_1

_chemical_name_common                  'Mg   Al   Hf   N                      '
_cell_length_a                         9.859993
_cell_length_b                         9.873923
_cell_length_c                         10.004558
_cell_angle_alpha                      89.860825
_cell_angle_beta                       89.538544
_cell_angle_gamma                      59.982616
_cell_volume                           843.342424
_space_group_name_H-M_alt              'P 1'
_space_group_IT_number                 1

loop_
_space_group_symop_operation_xyz
   'x, y, z'

loop_
   _atom_site_label
   _atom_site_occupancy
   _atom_site_fract_x
   _atom_site_fract_y
   _atom_site_fract_z
   _atom_site_adp_type
   _atom_site_U_iso_or_equiv
   _atom_site_type_symbol
   Mg1        1.0     0.120495     0.090001     0.371373    Uiso  ? Mg
   Mg2        1.0     0.566190     0.532741     0.113281    Uiso  ? Mg
   Mg3        1.0     0.218993     0.870222     0.076286    Uiso  ? Mg
   Mg4        1.0     0.769948     0.758536     0.886430    Uiso  ? Mg
   Mg5        1.0     0.546056     0.880815     0.116416    Uiso  ? Mg
   Al1        1.0     0.219764     0.212407     0.133252    Uiso  ? Al
   Al2        1.0     0.900161     0.205111     0.631569    Uiso  ? Al
   Al3        1.0     0.428349     0.093467     0.381998    Uiso  ? Al
   Al4        1.0     0.535537     0.208136     0.138659    Uiso  ? Al
   Al5        1.0     0.115404     0.093907     0.884330    Uiso  ? Al
   Al6        1.0     0.217600     0.193266     0.630317    Uiso  ? Al
   Al7        1.0     0.901289     0.221901     0.133831    Uiso  ? Al
   Al8        1.0     0.437144     0.093146     0.886514    Uiso  ? Al
   Al9        1.0     0.115153     0.418067     0.388557    Uiso  ? Al
   Al10       1.0     0.222451     0.543239     0.074476    Uiso  ? Al
   Al11       1.0     0.779742     0.430927     0.882599    Uiso  ? Al
   Al12       1.0     0.880454     0.541421     0.628363    Uiso  ? Al
   Al13       1.0     0.434619     0.440741     0.319410    Uiso  ? Al
   Al14       1.0     0.220396     0.549430     0.568711    Uiso  ? Al
   Al15       1.0     0.771077     0.429013     0.387017    Uiso  ? Al
   Al16       1.0     0.899382     0.526730     0.133876    Uiso  ? Al
   Al17       1.0     0.444326     0.438210     0.850907    Uiso  ? Al
   Al18       1.0     0.557020     0.543899     0.632037    Uiso  ? Al
   Al19       1.0     0.127042     0.748346     0.320102    Uiso  ? Al
   Al20       1.0     0.900133     0.862028     0.571395    Uiso  ? Al
   Al21       1.0     0.435873     0.757697     0.304771    Uiso  ? Al
   Al22       1.0     0.118194     0.768206     0.818718    Uiso  ? Al
   Al23       1.0     0.229457     0.864985     0.569856    Uiso  ? Al
   Al24       1.0     0.906493     0.849819     0.082357    Uiso  ? Al
   Al25       1.0     0.435886     0.769033     0.835131    Uiso  ? Al
   Al26       1.0     0.552595     0.871217     0.636213    Uiso  ? Al
   Hf1        1.0     0.776984     0.100669     0.891883    Uiso  ? Hf
   Hf2        1.0     0.782759     0.097109     0.351425    Uiso  ? Hf
   Hf3        1.0     0.546132     0.211688     0.614105    Uiso  ? Hf
   Hf4        1.0     0.111391     0.429840     0.859125    Uiso  ? Hf
   Hf5        1.0     0.771630     0.756106     0.350934    Uiso  ? Hf
   N1         1.0     0.226386     0.216704     0.322147    Uiso  ? N
   N2         1.0     0.105874     0.114834     0.075316    Uiso  ? N
   N3         1.0     0.896333     0.211722     0.825117    Uiso  ? N
   N4         1.0     0.790758     0.091437     0.581463    Uiso  ? N
   N5         1.0     0.536966     0.211345     0.344049    Uiso  ? N
   N6         1.0     0.430956     0.113916     0.071986    Uiso  ? N
   N7         1.0     0.229154     0.191074     0.820591    Uiso  ? N
   N8         1.0     0.110406     0.091550     0.583128    Uiso  ? N
   N9         1.0     0.887197     0.223810     0.320735    Uiso  ? N
   N10        1.0     0.773539     0.095596     0.109116    Uiso  ? N
   N11        1.0     0.540183     0.212807     0.830037    Uiso  ? N
   N12        1.0     0.431238     0.087619     0.574310    Uiso  ? N
   N13        1.0     0.221908     0.536269     0.378061    Uiso  ? N
   N14        1.0     0.110236     0.428755     0.072122    Uiso  ? N
   N15        1.0     0.877795     0.537073     0.816136    Uiso  ? N
   N16        1.0     0.777977     0.424875     0.578917    Uiso  ? N
   N17        1.0     0.559144     0.534223     0.341852    Uiso  ? N
   N18        1.0     0.434678     0.421715     0.118121    Uiso  ? N
   N19        1.0     0.230611     0.555983     0.877939    Uiso  ? N
   N20        1.0     0.110771     0.424879     0.592391    Uiso  ? N
   N21        1.0     0.901812     0.513008     0.330414    Uiso  ? N
   N22        1.0     0.798298     0.422798     0.068068    Uiso  ? N
   N23        1.0     0.564332     0.534823     0.836919    Uiso  ? N
   N24        1.0     0.431255     0.449146     0.619023    Uiso  ? N
   N25        1.0     0.233366     0.847113     0.379427    Uiso  ? N
   N26        1.0     0.110022     0.747922     0.135527    Uiso  ? N
   N27        1.0     0.908357     0.863659     0.886574    Uiso  ? N
   N28        1.0     0.774075     0.761262     0.578712    Uiso  ? N
   N29        1.0     0.533489     0.883604     0.337678    Uiso  ? N
   N30        1.0     0.440461     0.759499     0.116817    Uiso  ? N
   N31        1.0     0.218057     0.877002     0.863918    Uiso  ? N
   N32        1.0     0.108829     0.760696     0.628617    Uiso  ? N
   N33        1.0     0.913516     0.857549     0.376292    Uiso  ? N
   N34        1.0     0.792588     0.749845     0.117628    Uiso  ? N
   N35        1.0     0.544377     0.885883     0.831124    Uiso  ? N
   N36        1.0     0.441303     0.762305     0.631801    Uiso  ? N
