
#======================================================================
# CRYSTAL DATA
#----------------------------------------------------------------------
data_VESTA_phase_1

_chemical_name_common                  'Mg   Al   Hf   N                      '
_cell_length_a                         9.838988
_cell_length_b                         9.852084
_cell_length_c                         10.028305
_cell_angle_alpha                      89.912407
_cell_angle_beta                       89.452927
_cell_angle_gamma                      60.103729
_cell_volume                           842.688192
_space_group_name_H-M_alt              'P 1'
_space_group_IT_number                 1

loop_
_space_group_symop_operation_xyz
   'x, y, z'

loop_
   _atom_site_label
   _atom_site_occupancy
   _atom_site_fract_x
   _atom_site_fract_y
   _atom_site_fract_z
   _atom_site_adp_type
   _atom_site_U_iso_or_equiv
   _atom_site_type_symbol
   Mg1        1.0     0.120055     0.090195     0.370879    Uiso  ? Mg
   Mg2        1.0     0.566866     0.527069     0.121166    Uiso  ? Mg
   Mg3        1.0     0.216700     0.871797     0.077896    Uiso  ? Mg
   Mg4        1.0     0.771731     0.758074     0.887025    Uiso  ? Mg
   Mg5        1.0     0.548398     0.882790     0.112934    Uiso  ? Mg
   Al1        1.0     0.220089     0.213124     0.133433    Uiso  ? Al
   Al2        1.0     0.899824     0.203949     0.630969    Uiso  ? Al
   Al3        1.0     0.428399     0.094143     0.380951    Uiso  ? Al
   Al4        1.0     0.528672     0.219097     0.142631    Uiso  ? Al
   Al5        1.0     0.115413     0.092978     0.885056    Uiso  ? Al
   Al6        1.0     0.218753     0.190716     0.630295    Uiso  ? Al
   Al7        1.0     0.901336     0.222041     0.134285    Uiso  ? Al
   Al8        1.0     0.436810     0.094602     0.887597    Uiso  ? Al
   Al9        1.0     0.114898     0.418284     0.388474    Uiso  ? Al
   Al10       1.0     0.221778     0.543142     0.071989    Uiso  ? Al
   Al11       1.0     0.778455     0.430052     0.882776    Uiso  ? Al
   Al12       1.0     0.878412     0.541574     0.628701    Uiso  ? Al
   Al13       1.0     0.440415     0.445642     0.382403    Uiso  ? Al
   Al14       1.0     0.213745     0.551311     0.572822    Uiso  ? Al
   Al15       1.0     0.772018     0.429633     0.387202    Uiso  ? Al
   Al16       1.0     0.899759     0.526502     0.133058    Uiso  ? Al
   Al17       1.0     0.447902     0.433521     0.888606    Uiso  ? Al
   Al18       1.0     0.555767     0.544271     0.639128    Uiso  ? Al
   Al19       1.0     0.127530     0.746391     0.318856    Uiso  ? Al
   Al20       1.0     0.899032     0.862980     0.569258    Uiso  ? Al
   Al21       1.0     0.436273     0.759722     0.296905    Uiso  ? Al
   Al22       1.0     0.117808     0.769469     0.817264    Uiso  ? Al
   Al23       1.0     0.232281     0.863504     0.567502    Uiso  ? Al
   Al24       1.0     0.907195     0.849837     0.082477    Uiso  ? Al
   Al25       1.0     0.437831     0.765481     0.855121    Uiso  ? Al
   Al26       1.0     0.550956     0.869073     0.641644    Uiso  ? Al
   Hf1        1.0     0.774452     0.102504     0.894725    Uiso  ? Hf
   Hf2        1.0     0.781329     0.097396     0.347696    Uiso  ? Hf
   Hf3        1.0     0.547390     0.209552     0.616684    Uiso  ? Hf
   Hf4        1.0     0.110763     0.429048     0.857319    Uiso  ? Hf
   Hf5        1.0     0.770608     0.756003     0.350592    Uiso  ? Hf
   N1         1.0     0.226202     0.217088     0.322100    Uiso  ? N
   N2         1.0     0.106136     0.115463     0.076100    Uiso  ? N
   N3         1.0     0.896460     0.210196     0.824706    Uiso  ? N
   N4         1.0     0.789645     0.091059     0.578785    Uiso  ? N
   N5         1.0     0.533487     0.218867     0.341851    Uiso  ? N
   N6         1.0     0.431226     0.116984     0.072906    Uiso  ? N
   N7         1.0     0.229872     0.189358     0.819922    Uiso  ? N
   N8         1.0     0.110510     0.090250     0.581512    Uiso  ? N
   N9         1.0     0.886762     0.224189     0.321100    Uiso  ? N
   N10        1.0     0.774346     0.095923     0.111433    Uiso  ? N
   N11        1.0     0.538758     0.214471     0.825774    Uiso  ? N
   N12        1.0     0.433304     0.084861     0.573162    Uiso  ? N
   N13        1.0     0.218100     0.538238     0.379373    Uiso  ? N
   N14        1.0     0.110970     0.428684     0.070985    Uiso  ? N
   N15        1.0     0.876039     0.537147     0.815845    Uiso  ? N
   N16        1.0     0.776611     0.424634     0.578489    Uiso  ? N
   N17        1.0     0.561040     0.536820     0.334628    Uiso  ? N
   N18        1.0     0.441395     0.418334     0.077572    Uiso  ? N
   N19        1.0     0.229258     0.555281     0.867667    Uiso  ? N
   N20        1.0     0.110047     0.423613     0.593591    Uiso  ? N
   N21        1.0     0.902413     0.512928     0.329488    Uiso  ? N
   N22        1.0     0.797892     0.422453     0.067715    Uiso  ? N
   N23        1.0     0.563057     0.529615     0.834034    Uiso  ? N
   N24        1.0     0.438064     0.447214     0.579574    Uiso  ? N
   N25        1.0     0.235487     0.846071     0.374992    Uiso  ? N
   N26        1.0     0.111364     0.746093     0.134694    Uiso  ? N
   N27        1.0     0.907569     0.865941     0.887216    Uiso  ? N
   N28        1.0     0.772578     0.761420     0.578155    Uiso  ? N
   N29        1.0     0.532588     0.885761     0.330257    Uiso  ? N
   N30        1.0     0.444210     0.757090     0.103591    Uiso  ? N
   N31        1.0     0.217383     0.876692     0.867005    Uiso  ? N
   N32        1.0     0.107590     0.763285     0.627363    Uiso  ? N
   N33        1.0     0.912960     0.857475     0.374650    Uiso  ? N
   N34        1.0     0.794040     0.748875     0.117109    Uiso  ? N
   N35        1.0     0.544823     0.885207     0.835636    Uiso  ? N
   N36        1.0     0.440534     0.761329     0.633002    Uiso  ? N
