
#======================================================================
# CRYSTAL DATA
#----------------------------------------------------------------------
data_VESTA_phase_1

_chemical_name_common                  'Mg   Al   Hf   N                      '
_cell_length_a                         9.778582
_cell_length_b                         9.801680
_cell_length_c                         10.211272
_cell_angle_alpha                      89.878647
_cell_angle_beta                       89.679268
_cell_angle_gamma                      60.199593
_cell_volume                           849.278009
_space_group_name_H-M_alt              'P 1'
_space_group_IT_number                 1

loop_
_space_group_symop_operation_xyz
   'x, y, z'

loop_
   _atom_site_label
   _atom_site_occupancy
   _atom_site_fract_x
   _atom_site_fract_y
   _atom_site_fract_z
   _atom_site_adp_type
   _atom_site_U_iso_or_equiv
   _atom_site_type_symbol
   Mg1        1.0     0.110418     0.093320     0.376124    Uiso  ? Mg
   Mg2        1.0     0.547802     0.545798     0.075598    Uiso  ? Mg
   Mg3        1.0     0.225412     0.868530     0.076778    Uiso  ? Mg
   Mg4        1.0     0.766541     0.756193     0.892721    Uiso  ? Mg
   Mg5        1.0     0.546161     0.884128     0.129896    Uiso  ? Mg
   Al1        1.0     0.223542     0.211153     0.137040    Uiso  ? Al
   Al2        1.0     0.899027     0.209112     0.641042    Uiso  ? Al
   Al3        1.0     0.427666     0.095712     0.391495    Uiso  ? Al
   Al4        1.0     0.532532     0.224783     0.058109    Uiso  ? Al
   Al5        1.0     0.119858     0.092407     0.888340    Uiso  ? Al
   Al6        1.0     0.215323     0.194828     0.634557    Uiso  ? Al
   Al7        1.0     0.900986     0.215715     0.118438    Uiso  ? Al
   Al8        1.0     0.434780     0.087159     0.883231    Uiso  ? Al
   Al9        1.0     0.115435     0.416102     0.392913    Uiso  ? Al
   Al10       1.0     0.227437     0.545141     0.077053    Uiso  ? Al
   Al11       1.0     0.775771     0.433976     0.882380    Uiso  ? Al
   Al12       1.0     0.880201     0.536600     0.635121    Uiso  ? Al
   Al13       1.0     0.433991     0.434205     0.321184    Uiso  ? Al
   Al14       1.0     0.218544     0.548614     0.571282    Uiso  ? Al
   Al15       1.0     0.770454     0.425604     0.339644    Uiso  ? Al
   Al16       1.0     0.901498     0.531875     0.135567    Uiso  ? Al
   Al17       1.0     0.443012     0.449892     0.817958    Uiso  ? Al
   Al18       1.0     0.557018     0.545095     0.565792    Uiso  ? Al
   Al19       1.0     0.123830     0.753016     0.324152    Uiso  ? Al
   Al20       1.0     0.900299     0.865123     0.577344    Uiso  ? Al
   Al21       1.0     0.433830     0.759653     0.315165    Uiso  ? Al
   Al22       1.0     0.123294     0.763315     0.819680    Uiso  ? Al
   Al23       1.0     0.226856     0.866322     0.571293    Uiso  ? Al
   Al24       1.0     0.910329     0.847901     0.072396    Uiso  ? Al
   Al25       1.0     0.440159     0.761300     0.818609    Uiso  ? Al
   Al26       1.0     0.556649     0.868237     0.634919    Uiso  ? Al
   Hf1        1.0     0.786783     0.086599     0.855087    Uiso  ? Hf
   Hf2        1.0     0.764278     0.092900     0.301727    Uiso  ? Hf
   Hf3        1.0     0.551739     0.209771     0.598672    Uiso  ? Hf
   Hf4        1.0     0.114435     0.429180     0.868272    Uiso  ? Hf
   Hf5        1.0     0.776796     0.754156     0.360918    Uiso  ? Hf
   N1         1.0     0.228101     0.214775     0.323585    Uiso  ? N
   N2         1.0     0.110094     0.113984     0.074062    Uiso  ? N
   N3         1.0     0.901556     0.214699     0.836067    Uiso  ? N
   N4         1.0     0.794121     0.078942     0.638533    Uiso  ? N
   N5         1.0     0.541781     0.217263     0.388238    Uiso  ? N
   N6         1.0     0.429871     0.111477     0.066475    Uiso  ? N
   N7         1.0     0.228257     0.191929     0.819688    Uiso  ? N
   N8         1.0     0.106659     0.093072     0.584757    Uiso  ? N
   N9         1.0     0.879727     0.212236     0.308077    Uiso  ? N
   N10        1.0     0.770320     0.097267     0.088719    Uiso  ? N
   N11        1.0     0.535022     0.223538     0.855167    Uiso  ? N
   N12        1.0     0.430620     0.086277     0.581149    Uiso  ? N
   N13        1.0     0.220023     0.538881     0.384411    Uiso  ? N
   N14        1.0     0.113327     0.429514     0.075104    Uiso  ? N
   N15        1.0     0.880956     0.536311     0.821612    Uiso  ? N
   N16        1.0     0.777494     0.421424     0.591295    Uiso  ? N
   N17        1.0     0.552097     0.537294     0.374844    Uiso  ? N
   N18        1.0     0.436149     0.419492     0.136598    Uiso  ? N
   N19        1.0     0.237387     0.554073     0.883051    Uiso  ? N
   N20        1.0     0.110383     0.422927     0.591818    Uiso  ? N
   N21        1.0     0.904766     0.510993     0.326915    Uiso  ? N
   N22        1.0     0.791437     0.428764     0.084547    Uiso  ? N
   N23        1.0     0.556691     0.543809     0.868552    Uiso  ? N
   N24        1.0     0.431610     0.451191     0.630163    Uiso  ? N
   N25        1.0     0.231297     0.849880     0.386496    Uiso  ? N
   N26        1.0     0.109363     0.750814     0.141636    Uiso  ? N
   N27        1.0     0.916974     0.849167     0.888038    Uiso  ? N
   N28        1.0     0.778591     0.755670     0.579096    Uiso  ? N
   N29        1.0     0.538986     0.885820     0.345742    Uiso  ? N
   N30        1.0     0.440822     0.759921     0.138142    Uiso  ? N
   N31        1.0     0.224215     0.874046     0.865231    Uiso  ? N
   N32        1.0     0.111432     0.758335     0.632621    Uiso  ? N
   N33        1.0     0.906153     0.873494     0.386313    Uiso  ? N
   N34        1.0     0.792219     0.754896     0.121511    Uiso  ? N
   N35        1.0     0.546353     0.882668     0.823731    Uiso  ? N
   N36        1.0     0.444823     0.756116     0.625732    Uiso  ? N
