
#======================================================================
# CRYSTAL DATA
#----------------------------------------------------------------------
data_VESTA_phase_1

_chemical_name_common                  'Mg   Al   Hf   N                      '
_cell_length_a                         9.803203
_cell_length_b                         9.815143
_cell_length_c                         10.157717
_cell_angle_alpha                      89.873329
_cell_angle_beta                       89.513344
_cell_angle_gamma                      59.900028
_cell_volume                           845.543700
_space_group_name_H-M_alt              'P 1'
_space_group_IT_number                 1

loop_
_space_group_symop_operation_xyz
   'x, y, z'

loop_
   _atom_site_label
   _atom_site_occupancy
   _atom_site_fract_x
   _atom_site_fract_y
   _atom_site_fract_z
   _atom_site_adp_type
   _atom_site_U_iso_or_equiv
   _atom_site_type_symbol
   Mg1        1.0     0.117158     0.086380     0.321466    Uiso  ? Mg
   Mg2        1.0     0.557389     0.538759     0.075668    Uiso  ? Mg
   Mg3        1.0     0.224838     0.870603     0.074880    Uiso  ? Mg
   Mg4        1.0     0.776574     0.761126     0.822804    Uiso  ? Mg
   Mg5        1.0     0.549526     0.876333     0.119077    Uiso  ? Mg
   Al1        1.0     0.221700     0.215854     0.135420    Uiso  ? Al
   Al2        1.0     0.894761     0.205817     0.573075    Uiso  ? Al
   Al3        1.0     0.430790     0.093336     0.388744    Uiso  ? Al
   Al4        1.0     0.536802     0.220627     0.065398    Uiso  ? Al
   Al5        1.0     0.116671     0.085891     0.838167    Uiso  ? Al
   Al6        1.0     0.217140     0.197005     0.637124    Uiso  ? Al
   Al7        1.0     0.902195     0.221148     0.069266    Uiso  ? Al
   Al8        1.0     0.435045     0.086962     0.886714    Uiso  ? Al
   Al9        1.0     0.120895     0.416485     0.391725    Uiso  ? Al
   Al10       1.0     0.225553     0.543718     0.077245    Uiso  ? Al
   Al11       1.0     0.768763     0.435679     0.818854    Uiso  ? Al
   Al12       1.0     0.884324     0.533551     0.579602    Uiso  ? Al
   Al13       1.0     0.437659     0.433417     0.322339    Uiso  ? Al
   Al14       1.0     0.219677     0.550867     0.575017    Uiso  ? Al
   Al15       1.0     0.777297     0.424655     0.322610    Uiso  ? Al
   Al16       1.0     0.884199     0.538745     0.073213    Uiso  ? Al
   Al17       1.0     0.441945     0.448223     0.821387    Uiso  ? Al
   Al18       1.0     0.553824     0.546028     0.568977    Uiso  ? Al
   Al19       1.0     0.123688     0.753851     0.323479    Uiso  ? Al
   Al20       1.0     0.899802     0.866128     0.577646    Uiso  ? Al
   Al21       1.0     0.436954     0.756413     0.317665    Uiso  ? Al
   Al22       1.0     0.123134     0.763087     0.821326    Uiso  ? Al
   Al23       1.0     0.223681     0.869985     0.571509    Uiso  ? Al
   Al24       1.0     0.905736     0.847533     0.072039    Uiso  ? Al
   Al25       1.0     0.440498     0.760223     0.821094    Uiso  ? Al
   Al26       1.0     0.548392     0.871422     0.629248    Uiso  ? Al
   Hf1        1.0     0.786051     0.090972     0.850834    Uiso  ? Hf
   Hf2        1.0     0.775172     0.099245     0.309947    Uiso  ? Hf
   Hf3        1.0     0.549860     0.209275     0.598563    Uiso  ? Hf
   Hf4        1.0     0.112337     0.431527     0.860555    Uiso  ? Hf
   Hf5        1.0     0.780064     0.753467     0.345320    Uiso  ? Hf
   N1         1.0     0.230864     0.217300     0.325780    Uiso  ? N
   N2         1.0     0.109569     0.108655     0.110159    Uiso  ? N
   N3         1.0     0.896221     0.220307     0.879661    Uiso  ? N
   N4         1.0     0.794293     0.083821     0.636243    Uiso  ? N
   N5         1.0     0.545807     0.212682     0.386547    Uiso  ? N
   N6         1.0     0.432787     0.109058     0.070132    Uiso  ? N
   N7         1.0     0.229221     0.192719     0.824601    Uiso  ? N
   N8         1.0     0.105520     0.089367     0.626279    Uiso  ? N
   N9         1.0     0.878196     0.214744     0.386451    Uiso  ? N
   N10        1.0     0.772127     0.098981     0.095986    Uiso  ? N
   N11        1.0     0.535988     0.221192     0.854865    Uiso  ? N
   N12        1.0     0.427582     0.088638     0.579708    Uiso  ? N
   N13        1.0     0.221829     0.539478     0.387347    Uiso  ? N
   N14        1.0     0.112619     0.429669     0.073545    Uiso  ? N
   N15        1.0     0.872126     0.537333     0.880418    Uiso  ? N
   N16        1.0     0.775199     0.425288     0.629932    Uiso  ? N
   N17        1.0     0.557689     0.533004     0.380970    Uiso  ? N
   N18        1.0     0.435800     0.419916     0.136990    Uiso  ? N
   N19        1.0     0.235847     0.554768     0.883052    Uiso  ? N
   N20        1.0     0.113680     0.425412     0.607193    Uiso  ? N
   N21        1.0     0.898223     0.513300     0.390787    Uiso  ? N
   N22        1.0     0.792208     0.423260     0.138324    Uiso  ? N
   N23        1.0     0.557089     0.541122     0.868585    Uiso  ? N
   N24        1.0     0.432487     0.449916     0.631788    Uiso  ? N
   N25        1.0     0.228462     0.854496     0.386803    Uiso  ? N
   N26        1.0     0.107159     0.751338     0.140402    Uiso  ? N
   N27        1.0     0.913443     0.852626     0.886020    Uiso  ? N
   N28        1.0     0.779426     0.760158     0.601524    Uiso  ? N
   N29        1.0     0.540404     0.879603     0.353869    Uiso  ? N
   N30        1.0     0.442314     0.755180     0.138957    Uiso  ? N
   N31        1.0     0.224368     0.871537     0.867916    Uiso  ? N
   N32        1.0     0.110715     0.760895     0.633339    Uiso  ? N
   N33        1.0     0.904518     0.873410     0.388036    Uiso  ? N
   N34        1.0     0.796577     0.749701     0.135922    Uiso  ? N
   N35        1.0     0.540824     0.884391     0.822473    Uiso  ? N
   N36        1.0     0.441098     0.756765     0.626359    Uiso  ? N
