
#======================================================================
# CRYSTAL DATA
#----------------------------------------------------------------------
data_VESTA_phase_1

_chemical_name_common                  'Mg   Al   Hf   N                      '
_cell_length_a                         9.801127
_cell_length_b                         9.817621
_cell_length_c                         10.175774
_cell_angle_alpha                      89.854813
_cell_angle_beta                       89.695572
_cell_angle_gamma                      60.063225
_cell_volume                           848.497520
_space_group_name_H-M_alt              'P 1'
_space_group_IT_number                 1

loop_
_space_group_symop_operation_xyz
   'x, y, z'

loop_
   _atom_site_label
   _atom_site_occupancy
   _atom_site_fract_x
   _atom_site_fract_y
   _atom_site_fract_z
   _atom_site_adp_type
   _atom_site_U_iso_or_equiv
   _atom_site_type_symbol
   Mg1        1.0     0.118090     0.090613     0.373632    Uiso  ? Mg
   Mg2        1.0     0.552251     0.540415     0.076481    Uiso  ? Mg
   Mg3        1.0     0.223813     0.867878     0.076597    Uiso  ? Mg
   Mg4        1.0     0.768082     0.756094     0.889233    Uiso  ? Mg
   Mg5        1.0     0.544878     0.880837     0.124387    Uiso  ? Mg
   Al1        1.0     0.221521     0.212032     0.134811    Uiso  ? Al
   Al2        1.0     0.901205     0.206227     0.637669    Uiso  ? Al
   Al3        1.0     0.429456     0.094248     0.388776    Uiso  ? Al
   Al4        1.0     0.534840     0.217645     0.089378    Uiso  ? Al
   Al5        1.0     0.117357     0.092990     0.887622    Uiso  ? Al
   Al6        1.0     0.216388     0.193876     0.633822    Uiso  ? Al
   Al7        1.0     0.900423     0.223905     0.127279    Uiso  ? Al
   Al8        1.0     0.436419     0.090313     0.881330    Uiso  ? Al
   Al9        1.0     0.117341     0.416740     0.390480    Uiso  ? Al
   Al10       1.0     0.225942     0.544496     0.075885    Uiso  ? Al
   Al11       1.0     0.778082     0.433055     0.884591    Uiso  ? Al
   Al12       1.0     0.881938     0.538765     0.631346    Uiso  ? Al
   Al13       1.0     0.435564     0.437046     0.324599    Uiso  ? Al
   Al14       1.0     0.217142     0.550053     0.570866    Uiso  ? Al
   Al15       1.0     0.780239     0.421685     0.386408    Uiso  ? Al
   Al16       1.0     0.898579     0.528701     0.136286    Uiso  ? Al
   Al17       1.0     0.441609     0.448208     0.816457    Uiso  ? Al
   Al18       1.0     0.549243     0.549921     0.569242    Uiso  ? Al
   Al19       1.0     0.125768     0.750966     0.322444    Uiso  ? Al
   Al20       1.0     0.899610     0.864207     0.575477    Uiso  ? Al
   Al21       1.0     0.436223     0.756801     0.313744    Uiso  ? Al
   Al22       1.0     0.120563     0.765448     0.820574    Uiso  ? Al
   Al23       1.0     0.225898     0.866754     0.570967    Uiso  ? Al
   Al24       1.0     0.906874     0.849704     0.075444    Uiso  ? Al
   Al25       1.0     0.439515     0.761086     0.821210    Uiso  ? Al
   Al26       1.0     0.555583     0.868583     0.635620    Uiso  ? Al
   Hf1        1.0     0.780981     0.093206     0.856714    Uiso  ? Hf
   Hf2        1.0     0.773454     0.095228     0.315572    Uiso  ? Hf
   Hf3        1.0     0.548741     0.209592     0.602061    Uiso  ? Hf
   Hf4        1.0     0.112573     0.429118     0.866025    Uiso  ? Hf
   Hf5        1.0     0.775641     0.755334     0.354809    Uiso  ? Hf
   N1         1.0     0.229888     0.215445     0.321258    Uiso  ? N
   N2         1.0     0.107442     0.114170     0.075125    Uiso  ? N
   N3         1.0     0.900007     0.215437     0.829085    Uiso  ? N
   N4         1.0     0.794177     0.081601     0.628621    Uiso  ? N
   N5         1.0     0.542159     0.215725     0.383042    Uiso  ? N
   N6         1.0     0.429546     0.111849     0.065895    Uiso  ? N
   N7         1.0     0.227527     0.191361     0.820123    Uiso  ? N
   N8         1.0     0.108517     0.092847     0.582620    Uiso  ? N
   N9         1.0     0.883759     0.219893     0.315246    Uiso  ? N
   N10        1.0     0.767469     0.098669     0.099980    Uiso  ? N
   N11        1.0     0.533519     0.219270     0.834832    Uiso  ? N
   N12        1.0     0.430283     0.084712     0.578545    Uiso  ? N
   N13        1.0     0.220974     0.538864     0.384045    Uiso  ? N
   N14        1.0     0.111147     0.429947     0.074039    Uiso  ? N
   N15        1.0     0.879453     0.536090     0.815871    Uiso  ? N
   N16        1.0     0.781999     0.420613     0.576135    Uiso  ? N
   N17        1.0     0.553828     0.537559     0.378876    Uiso  ? N
   N18        1.0     0.433477     0.422682     0.138969    Uiso  ? N
   N19        1.0     0.235439     0.553868     0.881454    Uiso  ? N
   N20        1.0     0.111576     0.422731     0.591012    Uiso  ? N
   N21        1.0     0.904380     0.510767     0.328988    Uiso  ? N
   N22        1.0     0.795898     0.427095     0.069803    Uiso  ? N
   N23        1.0     0.558340     0.539858     0.863833    Uiso  ? N
   N24        1.0     0.429904     0.452978     0.627342    Uiso  ? N
   N25        1.0     0.232688     0.847972     0.385096    Uiso  ? N
   N26        1.0     0.108208     0.750216     0.139755    Uiso  ? N
   N27        1.0     0.912319     0.856120     0.888969    Uiso  ? N
   N28        1.0     0.776515     0.757325     0.577178    Uiso  ? N
   N29        1.0     0.537480     0.884849     0.341975    Uiso  ? N
   N30        1.0     0.440639     0.756288     0.135261    Uiso  ? N
   N31        1.0     0.222711     0.874439     0.865456    Uiso  ? N
   N32        1.0     0.109615     0.759570     0.632876    Uiso  ? N
   N33        1.0     0.910007     0.867977     0.384578    Uiso  ? N
   N34        1.0     0.791822     0.752382     0.120847    Uiso  ? N
   N35        1.0     0.545237     0.882755     0.825921    Uiso  ? N
   N36        1.0     0.442586     0.758685     0.627739    Uiso  ? N
