
#======================================================================
# CRYSTAL DATA
#----------------------------------------------------------------------
data_VESTA_phase_1

_chemical_name_common                  'Mg   Al   Hf   N                      '
_cell_length_a                         9.765626
_cell_length_b                         9.779594
_cell_length_c                         10.258285
_cell_angle_alpha                      89.725471
_cell_angle_beta                       89.513664
_cell_angle_gamma                      60.270287
_cell_volume                           850.720637
_space_group_name_H-M_alt              'P 1'
_space_group_IT_number                 1

loop_
_space_group_symop_operation_xyz
   'x, y, z'

loop_
   _atom_site_label
   _atom_site_occupancy
   _atom_site_fract_x
   _atom_site_fract_y
   _atom_site_fract_z
   _atom_site_adp_type
   _atom_site_U_iso_or_equiv
   _atom_site_type_symbol
   Mg1        1.0     0.117051     0.089458     0.370495    Uiso  ? Mg
   Mg2        1.0     0.556724     0.542810     0.070378    Uiso  ? Mg
   Mg3        1.0     0.226074     0.867584     0.077451    Uiso  ? Mg
   Mg4        1.0     0.764926     0.754406     0.896360    Uiso  ? Mg
   Mg5        1.0     0.544965     0.884677     0.131441    Uiso  ? Mg
   Al1        1.0     0.223379     0.210810     0.138206    Uiso  ? Al
   Al2        1.0     0.893382     0.204986     0.579472    Uiso  ? Al
   Al3        1.0     0.428415     0.095082     0.391004    Uiso  ? Al
   Al4        1.0     0.535427     0.223649     0.060261    Uiso  ? Al
   Al5        1.0     0.121998     0.090926     0.888188    Uiso  ? Al
   Al6        1.0     0.214767     0.195514     0.635888    Uiso  ? Al
   Al7        1.0     0.893425     0.222610     0.069882    Uiso  ? Al
   Al8        1.0     0.435162     0.087996     0.884052    Uiso  ? Al
   Al9        1.0     0.117188     0.416093     0.392965    Uiso  ? Al
   Al10       1.0     0.228113     0.545024     0.078077    Uiso  ? Al
   Al11       1.0     0.766830     0.432572     0.812466    Uiso  ? Al
   Al12       1.0     0.886595     0.541241     0.631566    Uiso  ? Al
   Al13       1.0     0.436619     0.434290     0.320583    Uiso  ? Al
   Al14       1.0     0.219290     0.548383     0.570603    Uiso  ? Al
   Al15       1.0     0.771059     0.423307     0.315709    Uiso  ? Al
   Al16       1.0     0.901764     0.531823     0.143441    Uiso  ? Al
   Al17       1.0     0.441081     0.448760     0.818723    Uiso  ? Al
   Al18       1.0     0.554504     0.546647     0.565071    Uiso  ? Al
   Al19       1.0     0.124813     0.752016     0.323615    Uiso  ? Al
   Al20       1.0     0.901490     0.864578     0.575852    Uiso  ? Al
   Al21       1.0     0.436208     0.756397     0.314632    Uiso  ? Al
   Al22       1.0     0.121830     0.762663     0.820422    Uiso  ? Al
   Al23       1.0     0.228027     0.865476     0.570552    Uiso  ? Al
   Al24       1.0     0.909188     0.850201     0.073735    Uiso  ? Al
   Al25       1.0     0.438678     0.762200     0.818577    Uiso  ? Al
   Al26       1.0     0.556318     0.869135     0.635990    Uiso  ? Al
   Hf1        1.0     0.787530     0.086611     0.848784    Uiso  ? Hf
   Hf2        1.0     0.770595     0.096862     0.305801    Uiso  ? Hf
   Hf3        1.0     0.550821     0.210160     0.595721    Uiso  ? Hf
   Hf4        1.0     0.110493     0.429272     0.873113    Uiso  ? Hf
   Hf5        1.0     0.775521     0.756578     0.360752    Uiso  ? Hf
   N1         1.0     0.229462     0.215145     0.323089    Uiso  ? N
   N2         1.0     0.110521     0.113191     0.077481    Uiso  ? N
   N3         1.0     0.895001     0.220149     0.871723    Uiso  ? N
   N4         1.0     0.795302     0.080034     0.636636    Uiso  ? N
   N5         1.0     0.543035     0.215105     0.387155    Uiso  ? N
   N6         1.0     0.429821     0.112056     0.066281    Uiso  ? N
   N7         1.0     0.227864     0.192851     0.820124    Uiso  ? N
   N8         1.0     0.110269     0.090709     0.586467    Uiso  ? N
   N9         1.0     0.873425     0.214262     0.372592    Uiso  ? N
   N10        1.0     0.772655     0.100034     0.093219    Uiso  ? N
   N11        1.0     0.536683     0.222452     0.855806    Uiso  ? N
   N12        1.0     0.430175     0.086698     0.581062    Uiso  ? N
   N13        1.0     0.222873     0.538204     0.384614    Uiso  ? N
   N14        1.0     0.110738     0.430176     0.078259    Uiso  ? N
   N15        1.0     0.880885     0.538816     0.818179    Uiso  ? N
   N16        1.0     0.772234     0.423256     0.622012    Uiso  ? N
   N17        1.0     0.556575     0.535369     0.378642    Uiso  ? N
   N18        1.0     0.437370     0.420155     0.136243    Uiso  ? N
   N19        1.0     0.235652     0.552860     0.884200    Uiso  ? N
   N20        1.0     0.112018     0.422101     0.589871    Uiso  ? N
   N21        1.0     0.905390     0.513928     0.336817    Uiso  ? N
   N22        1.0     0.787782     0.424463     0.130189    Uiso  ? N
   N23        1.0     0.557033     0.543080     0.866406    Uiso  ? N
   N24        1.0     0.430998     0.450687     0.631107    Uiso  ? N
   N25        1.0     0.233312     0.847488     0.386564    Uiso  ? N
   N26        1.0     0.108956     0.750635     0.142102    Uiso  ? N
   N27        1.0     0.915137     0.850130     0.889813    Uiso  ? N
   N28        1.0     0.777231     0.758792     0.578437    Uiso  ? N
   N29        1.0     0.536936     0.885353     0.345604    Uiso  ? N
   N30        1.0     0.442360     0.756616     0.137674    Uiso  ? N
   N31        1.0     0.223319     0.873265     0.866146    Uiso  ? N
   N32        1.0     0.111526     0.757762     0.633475    Uiso  ? N
   N33        1.0     0.907344     0.873570     0.386530    Uiso  ? N
   N34        1.0     0.791922     0.754597     0.123226    Uiso  ? N
   N35        1.0     0.545673     0.883141     0.823911    Uiso  ? N
   N36        1.0     0.444638     0.756451     0.626729    Uiso  ? N
