
#======================================================================
# CRYSTAL DATA
#----------------------------------------------------------------------
data_VESTA_phase_1

_chemical_name_common                  'Mg   Al   Hf   N                      '
_cell_length_a                         9.810757
_cell_length_b                         9.833977
_cell_length_c                         10.054315
_cell_angle_alpha                      90.025352
_cell_angle_beta                       89.500267
_cell_angle_gamma                      60.155590
_cell_volume                           841.337852
_space_group_name_H-M_alt              'P 1'
_space_group_IT_number                 1

loop_
_space_group_symop_operation_xyz
   'x, y, z'

loop_
   _atom_site_label
   _atom_site_occupancy
   _atom_site_fract_x
   _atom_site_fract_y
   _atom_site_fract_z
   _atom_site_adp_type
   _atom_site_U_iso_or_equiv
   _atom_site_type_symbol
   Mg1        1.0     0.116504     0.095742     0.377670    Uiso  ? Mg
   Mg2        1.0     0.566172     0.524130     0.126753    Uiso  ? Mg
   Mg3        1.0     0.211532     0.875130     0.089956    Uiso  ? Mg
   Mg4        1.0     0.771794     0.756973     0.887999    Uiso  ? Mg
   Mg5        1.0     0.551409     0.884382     0.121230    Uiso  ? Mg
   Al1        1.0     0.221334     0.210074     0.142025    Uiso  ? Al
   Al2        1.0     0.899765     0.204362     0.636401    Uiso  ? Al
   Al3        1.0     0.428736     0.093969     0.387625    Uiso  ? Al
   Al4        1.0     0.530263     0.218152     0.145821    Uiso  ? Al
   Al5        1.0     0.116990     0.091574     0.890248    Uiso  ? Al
   Al6        1.0     0.217546     0.195213     0.635615    Uiso  ? Al
   Al7        1.0     0.899718     0.222528     0.139003    Uiso  ? Al
   Al8        1.0     0.436501     0.093676     0.891862    Uiso  ? Al
   Al9        1.0     0.118678     0.420602     0.394469    Uiso  ? Al
   Al10       1.0     0.225374     0.529648     0.145339    Uiso  ? Al
   Al11       1.0     0.778045     0.429710     0.886958    Uiso  ? Al
   Al12       1.0     0.882672     0.539795     0.634014    Uiso  ? Al
   Al13       1.0     0.437893     0.447218     0.388633    Uiso  ? Al
   Al14       1.0     0.220323     0.545846     0.632061    Uiso  ? Al
   Al15       1.0     0.770487     0.430741     0.393959    Uiso  ? Al
   Al16       1.0     0.896526     0.527445     0.142026    Uiso  ? Al
   Al17       1.0     0.438966     0.437765     0.894272    Uiso  ? Al
   Al18       1.0     0.552361     0.549509     0.645394    Uiso  ? Al
   Al19       1.0     0.123087     0.752671     0.324539    Uiso  ? Al
   Al20       1.0     0.899430     0.863136     0.574708    Uiso  ? Al
   Al21       1.0     0.437786     0.759421     0.306042    Uiso  ? Al
   Al22       1.0     0.118628     0.773103     0.820482    Uiso  ? Al
   Al23       1.0     0.233510     0.864436     0.566661    Uiso  ? Al
   Al24       1.0     0.908803     0.846153     0.084456    Uiso  ? Al
   Al25       1.0     0.442255     0.762180     0.900802    Uiso  ? Al
   Al26       1.0     0.547166     0.866722     0.648792    Uiso  ? Al
   Hf1        1.0     0.774320     0.101789     0.899214    Uiso  ? Hf
   Hf2        1.0     0.781118     0.096983     0.352697    Uiso  ? Hf
   Hf3        1.0     0.547981     0.209747     0.621866    Uiso  ? Hf
   Hf4        1.0     0.111918     0.429467     0.878597    Uiso  ? Hf
   Hf5        1.0     0.769684     0.755518     0.360188    Uiso  ? Hf
   N1         1.0     0.226814     0.216845     0.328854    Uiso  ? N
   N2         1.0     0.105197     0.116983     0.081054    Uiso  ? N
   N3         1.0     0.896776     0.209023     0.829794    Uiso  ? N
   N4         1.0     0.789793     0.091636     0.582587    Uiso  ? N
   N5         1.0     0.534401     0.217915     0.345690    Uiso  ? N
   N6         1.0     0.430807     0.116778     0.076984    Uiso  ? N
   N7         1.0     0.227701     0.193229     0.825559    Uiso  ? N
   N8         1.0     0.110783     0.092047     0.586684    Uiso  ? N
   N9         1.0     0.884411     0.226172     0.325302    Uiso  ? N
   N10        1.0     0.773498     0.096884     0.114927    Uiso  ? N
   N11        1.0     0.538759     0.214295     0.830605    Uiso  ? N
   N12        1.0     0.434037     0.084800     0.579631    Uiso  ? N
   N13        1.0     0.225651     0.530114     0.340799    Uiso  ? N
   N14        1.0     0.111651     0.429710     0.086380    Uiso  ? N
   N15        1.0     0.881445     0.532955     0.821287    Uiso  ? N
   N16        1.0     0.775909     0.425166     0.585085    Uiso  ? N
   N17        1.0     0.560281     0.536699     0.335722    Uiso  ? N
   N18        1.0     0.434147     0.420294     0.080224    Uiso  ? N
   N19        1.0     0.232906     0.546069     0.825516    Uiso  ? N
   N20        1.0     0.112753     0.426603     0.590765    Uiso  ? N
   N21        1.0     0.902065     0.513397     0.336629    Uiso  ? N
   N22        1.0     0.797099     0.422780     0.071822    Uiso  ? N
   N23        1.0     0.559062     0.533270     0.841445    Uiso  ? N
   N24        1.0     0.435669     0.448251     0.579740    Uiso  ? N
   N25        1.0     0.231648     0.852562     0.372731    Uiso  ? N
   N26        1.0     0.110000     0.747757     0.138603    Uiso  ? N
   N27        1.0     0.908737     0.864060     0.890379    Uiso  ? N
   N28        1.0     0.772663     0.761615     0.585987    Uiso  ? N
   N29        1.0     0.532107     0.886812     0.332008    Uiso  ? N
   N30        1.0     0.446315     0.756837     0.100562    Uiso  ? N
   N31        1.0     0.221781     0.873792     0.876674    Uiso  ? N
   N32        1.0     0.108000     0.768612     0.627926    Uiso  ? N
   N33        1.0     0.911857     0.856670     0.381384    Uiso  ? N
   N34        1.0     0.794226     0.747949     0.122287    Uiso  ? N
   N35        1.0     0.541861     0.881980     0.842437    Uiso  ? N
   N36        1.0     0.444593     0.759256     0.611466    Uiso  ? N
