
#======================================================================
# CRYSTAL DATA
#----------------------------------------------------------------------
data_VESTA_phase_1

_chemical_name_common                  'Mg   Al   Hf   N                      '
_cell_length_a                         9.819247
_cell_length_b                         9.842503
_cell_length_c                         10.029252
_cell_angle_alpha                      90.017105
_cell_angle_beta                       89.498871
_cell_angle_gamma                      60.148621
_cell_volume                           840.637007
_space_group_name_H-M_alt              'P 1'
_space_group_IT_number                 1

loop_
_space_group_symop_operation_xyz
   'x, y, z'

loop_
   _atom_site_label
   _atom_site_occupancy
   _atom_site_fract_x
   _atom_site_fract_y
   _atom_site_fract_z
   _atom_site_adp_type
   _atom_site_U_iso_or_equiv
   _atom_site_type_symbol
   Mg1        1.0     0.116604     0.095637     0.371048    Uiso  ? Mg
   Mg2        1.0     0.566157     0.524202     0.120557    Uiso  ? Mg
   Mg3        1.0     0.211635     0.874982     0.084897    Uiso  ? Mg
   Mg4        1.0     0.771919     0.757045     0.881523    Uiso  ? Mg
   Mg5        1.0     0.551491     0.884234     0.114720    Uiso  ? Mg
   Al1        1.0     0.221278     0.210370     0.136022    Uiso  ? Al
   Al2        1.0     0.899872     0.204429     0.630434    Uiso  ? Al
   Al3        1.0     0.428760     0.093805     0.381549    Uiso  ? Al
   Al4        1.0     0.530312     0.218147     0.139803    Uiso  ? Al
   Al5        1.0     0.117140     0.091362     0.884631    Uiso  ? Al
   Al6        1.0     0.217655     0.194737     0.629621    Uiso  ? Al
   Al7        1.0     0.899706     0.222611     0.132987    Uiso  ? Al
   Al8        1.0     0.436471     0.093754     0.885952    Uiso  ? Al
   Al9        1.0     0.118547     0.420618     0.388956    Uiso  ? Al
   Al10       1.0     0.225147     0.529644     0.139412    Uiso  ? Al
   Al11       1.0     0.778074     0.429699     0.881104    Uiso  ? Al
   Al12       1.0     0.882371     0.539916     0.628056    Uiso  ? Al
   Al13       1.0     0.437984     0.447280     0.382523    Uiso  ? Al
   Al14       1.0     0.220525     0.545973     0.625592    Uiso  ? Al
   Al15       1.0     0.770458     0.430862     0.387929    Uiso  ? Al
   Al16       1.0     0.896774     0.527432     0.135811    Uiso  ? Al
   Al17       1.0     0.438981     0.437679     0.888368    Uiso  ? Al
   Al18       1.0     0.552337     0.549504     0.639481    Uiso  ? Al
   Al19       1.0     0.122999     0.752650     0.319076    Uiso  ? Al
   Al20       1.0     0.899293     0.863209     0.569364    Uiso  ? Al
   Al21       1.0     0.438092     0.759297     0.300168    Uiso  ? Al
   Al22       1.0     0.119011     0.772822     0.814620    Uiso  ? Al
   Al23       1.0     0.233502     0.864546     0.560745    Uiso  ? Al
   Al24       1.0     0.908936     0.846012     0.078290    Uiso  ? Al
   Al25       1.0     0.442082     0.762221     0.894864    Uiso  ? Al
   Al26       1.0     0.547069     0.866726     0.642885    Uiso  ? Al
   Hf1        1.0     0.774525     0.101491     0.892305    Uiso  ? Hf
   Hf2        1.0     0.781163     0.096995     0.346671    Uiso  ? Hf
   Hf3        1.0     0.547737     0.209790     0.615462    Uiso  ? Hf
   Hf4        1.0     0.112051     0.429433     0.871605    Uiso  ? Hf
   Hf5        1.0     0.769803     0.755678     0.353967    Uiso  ? Hf
   N1         1.0     0.226785     0.217074     0.323309    Uiso  ? N
   N2         1.0     0.105385     0.116770     0.075893    Uiso  ? N
   N3         1.0     0.897027     0.209080     0.824283    Uiso  ? N
   N4         1.0     0.789765     0.091532     0.577734    Uiso  ? N
   N5         1.0     0.534542     0.217829     0.340374    Uiso  ? N
   N6         1.0     0.430795     0.116810     0.071491    Uiso  ? N
   N7         1.0     0.227747     0.192912     0.819945    Uiso  ? N
   N8         1.0     0.110748     0.091924     0.580685    Uiso  ? N
   N9         1.0     0.884266     0.226198     0.319782    Uiso  ? N
   N10        1.0     0.773417     0.096971     0.108704    Uiso  ? N
   N11        1.0     0.538558     0.214392     0.824800    Uiso  ? N
   N12        1.0     0.433986     0.084599     0.573950    Uiso  ? N
   N13        1.0     0.225441     0.530233     0.335595    Uiso  ? N
   N14        1.0     0.111722     0.429695     0.080048    Uiso  ? N
   N15        1.0     0.881257     0.533022     0.815675    Uiso  ? N
   N16        1.0     0.775871     0.425209     0.579419    Uiso  ? N
   N17        1.0     0.560304     0.536758     0.329998    Uiso  ? N
   N18        1.0     0.434002     0.420402     0.074829    Uiso  ? N
   N19        1.0     0.233125     0.546155     0.819573    Uiso  ? N
   N20        1.0     0.112745     0.426508     0.585674    Uiso  ? N
   N21        1.0     0.902103     0.513542     0.331016    Uiso  ? N
   N22        1.0     0.797139     0.422884     0.066324    Uiso  ? N
   N23        1.0     0.559108     0.533154     0.835914    Uiso  ? N
   N24        1.0     0.435879     0.448253     0.573986    Uiso  ? N
   N25        1.0     0.231745     0.852590     0.366321    Uiso  ? N
   N26        1.0     0.109951     0.747529     0.132621    Uiso  ? N
   N27        1.0     0.908914     0.863860     0.883819    Uiso  ? N
   N28        1.0     0.772640     0.761705     0.580465    Uiso  ? N
   N29        1.0     0.532303     0.886662     0.326251    Uiso  ? N
   N30        1.0     0.446352     0.756810     0.094788    Uiso  ? N
   N31        1.0     0.221718     0.873799     0.870842    Uiso  ? N
   N32        1.0     0.108196     0.768505     0.621535    Uiso  ? N
   N33        1.0     0.911672     0.856987     0.375511    Uiso  ? N
   N34        1.0     0.794355     0.747943     0.116237    Uiso  ? N
   N35        1.0     0.541822     0.882019     0.836996    Uiso  ? N
   N36        1.0     0.444511     0.759274     0.605795    Uiso  ? N
