
#======================================================================
# CRYSTAL DATA
#----------------------------------------------------------------------
data_VESTA_phase_1

_chemical_name_common                  'Mg   Al   Hf   N                      '
_cell_length_a                         9.765341
_cell_length_b                         9.779415
_cell_length_c                         10.250046
_cell_angle_alpha                      89.892014
_cell_angle_beta                       89.781487
_cell_angle_gamma                      60.220432
_cell_volume                           849.598917
_space_group_name_H-M_alt              'P 1'
_space_group_IT_number                 1

loop_
_space_group_symop_operation_xyz
   'x, y, z'

loop_
   _atom_site_label
   _atom_site_occupancy
   _atom_site_fract_x
   _atom_site_fract_y
   _atom_site_fract_z
   _atom_site_adp_type
   _atom_site_U_iso_or_equiv
   _atom_site_type_symbol
   Mg1        1.0     0.111563     0.092256     0.374291    Uiso  ? Mg
   Mg2        1.0     0.551743     0.543557     0.077380    Uiso  ? Mg
   Mg3        1.0     0.225243     0.868600     0.076502    Uiso  ? Mg
   Mg4        1.0     0.767382     0.754452     0.890856    Uiso  ? Mg
   Mg5        1.0     0.545806     0.883939     0.129667    Uiso  ? Mg
   Al1        1.0     0.223480     0.211308     0.136533    Uiso  ? Al
   Al2        1.0     0.900614     0.206734     0.640386    Uiso  ? Al
   Al3        1.0     0.427853     0.095376     0.391216    Uiso  ? Al
   Al4        1.0     0.532982     0.224651     0.057819    Uiso  ? Al
   Al5        1.0     0.118367     0.093678     0.888586    Uiso  ? Al
   Al6        1.0     0.215199     0.195243     0.634379    Uiso  ? Al
   Al7        1.0     0.899423     0.222052     0.122611    Uiso  ? Al
   Al8        1.0     0.434808     0.087409     0.883039    Uiso  ? Al
   Al9        1.0     0.116012     0.416073     0.391215    Uiso  ? Al
   Al10       1.0     0.227321     0.545177     0.077377    Uiso  ? Al
   Al11       1.0     0.778158     0.433484     0.886661    Uiso  ? Al
   Al12       1.0     0.882176     0.537074     0.631950    Uiso  ? Al
   Al13       1.0     0.434828     0.434953     0.321350    Uiso  ? Al
   Al14       1.0     0.217613     0.548634     0.570543    Uiso  ? Al
   Al15       1.0     0.777981     0.418943     0.383354    Uiso  ? Al
   Al16       1.0     0.898651     0.529295     0.138272    Uiso  ? Al
   Al17       1.0     0.442977     0.449416     0.818790    Uiso  ? Al
   Al18       1.0     0.549039     0.548776     0.567543    Uiso  ? Al
   Al19       1.0     0.123598     0.753457     0.323471    Uiso  ? Al
   Al20       1.0     0.899760     0.865436     0.575714    Uiso  ? Al
   Al21       1.0     0.435141     0.757833     0.315248    Uiso  ? Al
   Al22       1.0     0.123020     0.763276     0.819530    Uiso  ? Al
   Al23       1.0     0.225996     0.866972     0.570394    Uiso  ? Al
   Al24       1.0     0.909910     0.847705     0.072512    Uiso  ? Al
   Al25       1.0     0.440164     0.761468     0.819076    Uiso  ? Al
   Al26       1.0     0.556973     0.868199     0.634930    Uiso  ? Al
   Hf1        1.0     0.787204     0.087328     0.855162    Uiso  ? Hf
   Hf2        1.0     0.763800     0.094918     0.300671    Uiso  ? Hf
   Hf3        1.0     0.551448     0.209270     0.598137    Uiso  ? Hf
   Hf4        1.0     0.112190     0.429755     0.869959    Uiso  ? Hf
   Hf5        1.0     0.776938     0.754230     0.357974    Uiso  ? Hf
   N1         1.0     0.228722     0.214416     0.322297    Uiso  ? N
   N2         1.0     0.108208     0.114946     0.074243    Uiso  ? N
   N3         1.0     0.901461     0.216192     0.830337    Uiso  ? N
   N4         1.0     0.793790     0.078955     0.638380    Uiso  ? N
   N5         1.0     0.542054     0.217338     0.388851    Uiso  ? N
   N6         1.0     0.429510     0.111502     0.065562    Uiso  ? N
   N7         1.0     0.227837     0.192675     0.819201    Uiso  ? N
   N8         1.0     0.106874     0.093442     0.582721    Uiso  ? N
   N9         1.0     0.877270     0.217200     0.310081    Uiso  ? N
   N10        1.0     0.770472     0.098223     0.088767    Uiso  ? N
   N11        1.0     0.535652     0.223082     0.855557    Uiso  ? N
   N12        1.0     0.430298     0.085900     0.580559    Uiso  ? N
   N13        1.0     0.220169     0.539219     0.384149    Uiso  ? N
   N14        1.0     0.111533     0.430692     0.075912    Uiso  ? N
   N15        1.0     0.879967     0.535259     0.815318    Uiso  ? N
   N16        1.0     0.781198     0.418640     0.574105    Uiso  ? N
   N17        1.0     0.551306     0.537535     0.378700    Uiso  ? N
   N18        1.0     0.436715     0.419282     0.137018    Uiso  ? N
   N19        1.0     0.236935     0.553468     0.883325    Uiso  ? N
   N20        1.0     0.110642     0.422359     0.589365    Uiso  ? N
   N21        1.0     0.903332     0.508990     0.328801    Uiso  ? N
   N22        1.0     0.795781     0.428101     0.070310    Uiso  ? N
   N23        1.0     0.558291     0.542979     0.866001    Uiso  ? N
   N24        1.0     0.430436     0.450884     0.631530    Uiso  ? N
   N25        1.0     0.231906     0.849407     0.386404    Uiso  ? N
   N26        1.0     0.109202     0.751071     0.141635    Uiso  ? N
   N27        1.0     0.916641     0.849021     0.888504    Uiso  ? N
   N28        1.0     0.778032     0.755789     0.576942    Uiso  ? N
   N29        1.0     0.538810     0.885713     0.344992    Uiso  ? N
   N30        1.0     0.440970     0.758693     0.138509    Uiso  ? N
   N31        1.0     0.223811     0.874615     0.865603    Uiso  ? N
   N32        1.0     0.110882     0.758580     0.632612    Uiso  ? N
   N33        1.0     0.905726     0.874944     0.385564    Uiso  ? N
   N34        1.0     0.792503     0.753756     0.123062    Uiso  ? N
   N35        1.0     0.546806     0.882842     0.823159    Uiso  ? N
   N36        1.0     0.443258     0.757736     0.627039    Uiso  ? N
