
#======================================================================
# CRYSTAL DATA
#----------------------------------------------------------------------
data_VESTA_phase_1

_chemical_name_common                  'Mg   Al   Hf   N                      '
_cell_length_a                         9.790623
_cell_length_b                         9.807158
_cell_length_c                         10.108499
_cell_angle_alpha                      89.773804
_cell_angle_beta                       89.625694
_cell_angle_gamma                      60.034573
_cell_volume                           840.838407
_space_group_name_H-M_alt              'P 1'
_space_group_IT_number                 1

loop_
_space_group_symop_operation_xyz
   'x, y, z'

loop_
   _atom_site_label
   _atom_site_occupancy
   _atom_site_fract_x
   _atom_site_fract_y
   _atom_site_fract_z
   _atom_site_adp_type
   _atom_site_U_iso_or_equiv
   _atom_site_type_symbol
   Mg1        1.0     0.114478     0.086482     0.323690    Uiso  ? Mg
   Mg2        1.0     0.556619     0.540872     0.067924    Uiso  ? Mg
   Mg3        1.0     0.225267     0.874384     0.064694    Uiso  ? Mg
   Mg4        1.0     0.773499     0.758383     0.808809    Uiso  ? Mg
   Mg5        1.0     0.555748     0.863957     0.064275    Uiso  ? Mg
   Al1        1.0     0.225726     0.203289     0.132286    Uiso  ? Al
   Al2        1.0     0.890985     0.208141     0.566334    Uiso  ? Al
   Al3        1.0     0.432745     0.097339     0.380790    Uiso  ? Al
   Al4        1.0     0.535854     0.221664     0.057932    Uiso  ? Al
   Al5        1.0     0.117460     0.083521     0.807348    Uiso  ? Al
   Al6        1.0     0.213301     0.205899     0.606212    Uiso  ? Al
   Al7        1.0     0.906766     0.219323     0.058849    Uiso  ? Al
   Al8        1.0     0.431431     0.089895     0.878156    Uiso  ? Al
   Al9        1.0     0.114321     0.431311     0.310936    Uiso  ? Al
   Al10       1.0     0.225687     0.543662     0.073284    Uiso  ? Al
   Al11       1.0     0.771589     0.434709     0.812646    Uiso  ? Al
   Al12       1.0     0.890188     0.532390     0.563284    Uiso  ? Al
   Al13       1.0     0.439725     0.434456     0.314685    Uiso  ? Al
   Al14       1.0     0.215086     0.547848     0.559564    Uiso  ? Al
   Al15       1.0     0.776276     0.425968     0.313634    Uiso  ? Al
   Al16       1.0     0.886886     0.536484     0.069500    Uiso  ? Al
   Al17       1.0     0.440278     0.448743     0.814895    Uiso  ? Al
   Al18       1.0     0.554026     0.545474     0.563554    Uiso  ? Al
   Al19       1.0     0.123498     0.756485     0.313347    Uiso  ? Al
   Al20       1.0     0.899546     0.865768     0.569365    Uiso  ? Al
   Al21       1.0     0.436986     0.758539     0.311235    Uiso  ? Al
   Al22       1.0     0.123144     0.759502     0.813636    Uiso  ? Al
   Al23       1.0     0.224559     0.865452     0.565057    Uiso  ? Al
   Al24       1.0     0.905674     0.847189     0.061618    Uiso  ? Al
   Al25       1.0     0.443298     0.762938     0.811560    Uiso  ? Al
   Al26       1.0     0.549683     0.865244     0.575777    Uiso  ? Al
   Hf1        1.0     0.786563     0.089016     0.846100    Uiso  ? Hf
   Hf2        1.0     0.776540     0.100930     0.299633    Uiso  ? Hf
   Hf3        1.0     0.551458     0.209769     0.594023    Uiso  ? Hf
   Hf4        1.0     0.112670     0.430217     0.832845    Uiso  ? Hf
   Hf5        1.0     0.776287     0.757602     0.331666    Uiso  ? Hf
   N1         1.0     0.227606     0.215977     0.334651    Uiso  ? N
   N2         1.0     0.106530     0.105912     0.117032    Uiso  ? N
   N3         1.0     0.901485     0.216090     0.868074    Uiso  ? N
   N4         1.0     0.796229     0.082690     0.629710    Uiso  ? N
   N5         1.0     0.548219     0.212121     0.377898    Uiso  ? N
   N6         1.0     0.431649     0.110728     0.067142    Uiso  ? N
   N7         1.0     0.227068     0.192225     0.816086    Uiso  ? N
   N8         1.0     0.105999     0.090926     0.611710    Uiso  ? N
   N9         1.0     0.874740     0.218328     0.380869    Uiso  ? N
   N10        1.0     0.772382     0.098135     0.084532    Uiso  ? N
   N11        1.0     0.535369     0.221364     0.846691    Uiso  ? N
   N12        1.0     0.430135     0.090809     0.576779    Uiso  ? N
   N13        1.0     0.220224     0.539720     0.371818    Uiso  ? N
   N14        1.0     0.110470     0.433425     0.111550    Uiso  ? N
   N15        1.0     0.878838     0.532600     0.879621    Uiso  ? N
   N16        1.0     0.777641     0.427525     0.621658    Uiso  ? N
   N17        1.0     0.558062     0.534448     0.374335    Uiso  ? N
   N18        1.0     0.438140     0.420854     0.128975    Uiso  ? N
   N19        1.0     0.234367     0.549974     0.881149    Uiso  ? N
   N20        1.0     0.107517     0.434859     0.617872    Uiso  ? N
   N21        1.0     0.900293     0.517328     0.374456    Uiso  ? N
   N22        1.0     0.791583     0.421072     0.128617    Uiso  ? N
   N23        1.0     0.557857     0.540818     0.859110    Uiso  ? N
   N24        1.0     0.428465     0.451615     0.623104    Uiso  ? N
   N25        1.0     0.229567     0.852767     0.380712    Uiso  ? N
   N26        1.0     0.107133     0.754141     0.129721    Uiso  ? N
   N27        1.0     0.912996     0.849684     0.874990    Uiso  ? N
   N28        1.0     0.779783     0.758680     0.592331    Uiso  ? N
   N29        1.0     0.538526     0.875293     0.377741    Uiso  ? N
   N30        1.0     0.444487     0.758791     0.133309    Uiso  ? N
   N31        1.0     0.223195     0.871981     0.854005    Uiso  ? N
   N32        1.0     0.111262     0.757183     0.623782    Uiso  ? N
   N33        1.0     0.903437     0.874411     0.378017    Uiso  ? N
   N34        1.0     0.793093     0.752230     0.125954    Uiso  ? N
   N35        1.0     0.543897     0.877821     0.848471    Uiso  ? N
   N36        1.0     0.442783     0.757575     0.619738    Uiso  ? N
