
#======================================================================
# CRYSTAL DATA
#----------------------------------------------------------------------
data_VESTA_phase_1

_chemical_name_common                  'Mg   Al   Hf   N                      '
_cell_length_a                         9.850623
_cell_length_b                         9.872634
_cell_length_c                         10.031837
_cell_angle_alpha                      89.870285
_cell_angle_beta                       89.606369
_cell_angle_gamma                      59.970257
_cell_volume                           844.630902
_space_group_name_H-M_alt              'P 1'
_space_group_IT_number                 1

loop_
_space_group_symop_operation_xyz
   'x, y, z'

loop_
   _atom_site_label
   _atom_site_occupancy
   _atom_site_fract_x
   _atom_site_fract_y
   _atom_site_fract_z
   _atom_site_adp_type
   _atom_site_U_iso_or_equiv
   _atom_site_type_symbol
   Mg1        1.0     0.120778     0.090392     0.371477    Uiso  ? Mg
   Mg2        1.0     0.562827     0.531804     0.108008    Uiso  ? Mg
   Mg3        1.0     0.219679     0.869663     0.076677    Uiso  ? Mg
   Mg4        1.0     0.769824     0.758668     0.886915    Uiso  ? Mg
   Mg5        1.0     0.545602     0.880500     0.116699    Uiso  ? Mg
   Al1        1.0     0.220095     0.212731     0.133142    Uiso  ? Al
   Al2        1.0     0.900436     0.204493     0.632214    Uiso  ? Al
   Al3        1.0     0.428187     0.092308     0.382961    Uiso  ? Al
   Al4        1.0     0.534466     0.209037     0.140793    Uiso  ? Al
   Al5        1.0     0.115217     0.093679     0.884979    Uiso  ? Al
   Al6        1.0     0.217399     0.193182     0.631489    Uiso  ? Al
   Al7        1.0     0.901139     0.222566     0.133865    Uiso  ? Al
   Al8        1.0     0.437828     0.093648     0.885424    Uiso  ? Al
   Al9        1.0     0.115886     0.418098     0.389184    Uiso  ? Al
   Al10       1.0     0.226146     0.541867     0.073263    Uiso  ? Al
   Al11       1.0     0.778724     0.431466     0.882067    Uiso  ? Al
   Al12       1.0     0.881436     0.541093     0.629221    Uiso  ? Al
   Al13       1.0     0.433912     0.441668     0.321221    Uiso  ? Al
   Al14       1.0     0.218580     0.550334     0.570423    Uiso  ? Al
   Al15       1.0     0.772584     0.428444     0.387293    Uiso  ? Al
   Al16       1.0     0.899228     0.526887     0.133840    Uiso  ? Al
   Al17       1.0     0.440443     0.442029     0.823799    Uiso  ? Al
   Al18       1.0     0.558559     0.545950     0.624086    Uiso  ? Al
   Al19       1.0     0.127862     0.747286     0.320063    Uiso  ? Al
   Al20       1.0     0.900516     0.861779     0.570943    Uiso  ? Al
   Al21       1.0     0.436360     0.756692     0.306225    Uiso  ? Al
   Al22       1.0     0.117272     0.769130     0.819791    Uiso  ? Al
   Al23       1.0     0.228554     0.865776     0.569395    Uiso  ? Al
   Al24       1.0     0.906947     0.849203     0.082320    Uiso  ? Al
   Al25       1.0     0.436128     0.768269     0.832762    Uiso  ? Al
   Al26       1.0     0.553034     0.871115     0.636750    Uiso  ? Al
   Hf1        1.0     0.773867     0.102864     0.892591    Uiso  ? Hf
   Hf2        1.0     0.784672     0.095742     0.350016    Uiso  ? Hf
   Hf3        1.0     0.547618     0.209341     0.607659    Uiso  ? Hf
   Hf4        1.0     0.111658     0.429391     0.860660    Uiso  ? Hf
   Hf5        1.0     0.771940     0.755722     0.350798    Uiso  ? Hf
   N1         1.0     0.227045     0.216963     0.321740    Uiso  ? N
   N2         1.0     0.105935     0.114932     0.075434    Uiso  ? N
   N3         1.0     0.895628     0.211484     0.825349    Uiso  ? N
   N4         1.0     0.792257     0.090420     0.580218    Uiso  ? N
   N5         1.0     0.538263     0.210489     0.351571    Uiso  ? N
   N6         1.0     0.431707     0.114211     0.071282    Uiso  ? N
   N7         1.0     0.228822     0.190851     0.821010    Uiso  ? N
   N8         1.0     0.110357     0.091773     0.583021    Uiso  ? N
   N9         1.0     0.887641     0.224062     0.320251    Uiso  ? N
   N10        1.0     0.771933     0.096492     0.110360    Uiso  ? N
   N11        1.0     0.539677     0.212401     0.824425    Uiso  ? N
   N12        1.0     0.430891     0.086401     0.574673    Uiso  ? N
   N13        1.0     0.222258     0.536700     0.381993    Uiso  ? N
   N14        1.0     0.110545     0.429063     0.072129    Uiso  ? N
   N15        1.0     0.878066     0.537084     0.816492    Uiso  ? N
   N16        1.0     0.780355     0.423814     0.578691    Uiso  ? N
   N17        1.0     0.557901     0.535249     0.351206    Uiso  ? N
   N18        1.0     0.432365     0.422191     0.130406    Uiso  ? N
   N19        1.0     0.232156     0.555200     0.877655    Uiso  ? N
   N20        1.0     0.111194     0.424347     0.592983    Uiso  ? N
   N21        1.0     0.902592     0.512727     0.330008    Uiso  ? N
   N22        1.0     0.797003     0.423430     0.067897    Uiso  ? N
   N23        1.0     0.564044     0.535697     0.835135    Uiso  ? N
   N24        1.0     0.429685     0.450344     0.625976    Uiso  ? N
   N25        1.0     0.232747     0.847577     0.379660    Uiso  ? N
   N26        1.0     0.110870     0.746581     0.135669    Uiso  ? N
   N27        1.0     0.907311     0.865328     0.887619    Uiso  ? N
   N28        1.0     0.774337     0.760908     0.578590    Uiso  ? N
   N29        1.0     0.533657     0.883447     0.337569    Uiso  ? N
   N30        1.0     0.440918     0.757995     0.119584    Uiso  ? N
   N31        1.0     0.218656     0.876676     0.864654    Uiso  ? N
   N32        1.0     0.108580     0.761265     0.629970    Uiso  ? N
   N33        1.0     0.914405     0.856356     0.376460    Uiso  ? N
   N34        1.0     0.792417     0.749911     0.117826    Uiso  ? N
   N35        1.0     0.544196     0.885629     0.830987    Uiso  ? N
   N36        1.0     0.440547     0.763563     0.630789    Uiso  ? N
