
#======================================================================
# CRYSTAL DATA
#----------------------------------------------------------------------
data_VESTA_phase_1

_chemical_name_common                  'Mg   Al   Hf   N                      '
_cell_length_a                         9.798209
_cell_length_b                         9.809706
_cell_length_c                         10.176461
_cell_angle_alpha                      89.848549
_cell_angle_beta                       89.496841
_cell_angle_gamma                      59.888035
_cell_volume                           846.099347
_space_group_name_H-M_alt              'P 1'
_space_group_IT_number                 1

loop_
_space_group_symop_operation_xyz
   'x, y, z'

loop_
   _atom_site_label
   _atom_site_occupancy
   _atom_site_fract_x
   _atom_site_fract_y
   _atom_site_fract_z
   _atom_site_adp_type
   _atom_site_U_iso_or_equiv
   _atom_site_type_symbol
   Mg1        1.0     0.117116     0.086718     0.323227    Uiso  ? Mg
   Mg2        1.0     0.557099     0.538600     0.075683    Uiso  ? Mg
   Mg3        1.0     0.223511     0.873436     0.073723    Uiso  ? Mg
   Mg4        1.0     0.776726     0.760789     0.822963    Uiso  ? Mg
   Mg5        1.0     0.549049     0.876269     0.119345    Uiso  ? Mg
   Al1        1.0     0.221096     0.215343     0.137462    Uiso  ? Al
   Al2        1.0     0.893724     0.206367     0.573507    Uiso  ? Al
   Al3        1.0     0.431957     0.093134     0.388805    Uiso  ? Al
   Al4        1.0     0.536073     0.220404     0.065466    Uiso  ? Al
   Al5        1.0     0.115572     0.084492     0.825315    Uiso  ? Al
   Al6        1.0     0.218099     0.198826     0.635325    Uiso  ? Al
   Al7        1.0     0.904713     0.220434     0.068323    Uiso  ? Al
   Al8        1.0     0.433712     0.086781     0.886932    Uiso  ? Al
   Al9        1.0     0.120876     0.417424     0.391902    Uiso  ? Al
   Al10       1.0     0.225488     0.543957     0.077588    Uiso  ? Al
   Al11       1.0     0.768967     0.435379     0.819097    Uiso  ? Al
   Al12       1.0     0.884211     0.533928     0.579201    Uiso  ? Al
   Al13       1.0     0.437947     0.433397     0.322310    Uiso  ? Al
   Al14       1.0     0.219856     0.550947     0.574777    Uiso  ? Al
   Al15       1.0     0.777677     0.424531     0.322338    Uiso  ? Al
   Al16       1.0     0.883737     0.538784     0.073555    Uiso  ? Al
   Al17       1.0     0.441783     0.447812     0.821406    Uiso  ? Al
   Al18       1.0     0.554089     0.545956     0.568734    Uiso  ? Al
   Al19       1.0     0.123866     0.754503     0.323203    Uiso  ? Al
   Al20       1.0     0.899724     0.866403     0.577704    Uiso  ? Al
   Al21       1.0     0.436609     0.756655     0.317211    Uiso  ? Al
   Al22       1.0     0.122849     0.762611     0.821459    Uiso  ? Al
   Al23       1.0     0.224498     0.868570     0.571473    Uiso  ? Al
   Al24       1.0     0.905569     0.847579     0.072022    Uiso  ? Al
   Al25       1.0     0.440443     0.759880     0.821206    Uiso  ? Al
   Al26       1.0     0.548660     0.871312     0.629986    Uiso  ? Al
   Hf1        1.0     0.785471     0.090985     0.852392    Uiso  ? Hf
   Hf2        1.0     0.776248     0.099779     0.309084    Uiso  ? Hf
   Hf3        1.0     0.550902     0.208965     0.598416    Uiso  ? Hf
   Hf4        1.0     0.112634     0.430221     0.862264    Uiso  ? Hf
   Hf5        1.0     0.780082     0.753991     0.344932    Uiso  ? Hf
   N1         1.0     0.231519     0.217740     0.327615    Uiso  ? N
   N2         1.0     0.108420     0.108555     0.117470    Uiso  ? N
   N3         1.0     0.898139     0.218912     0.878841    Uiso  ? N
   N4         1.0     0.794922     0.083670     0.637584    Uiso  ? N
   N5         1.0     0.547169     0.212301     0.386595    Uiso  ? N
   N6         1.0     0.431489     0.109145     0.070110    Uiso  ? N
   N7         1.0     0.228709     0.192154     0.822699    Uiso  ? N
   N8         1.0     0.105758     0.089644     0.626408    Uiso  ? N
   N9         1.0     0.878008     0.215295     0.388060    Uiso  ? N
   N10        1.0     0.771752     0.098663     0.095119    Uiso  ? N
   N11        1.0     0.535174     0.221076     0.855227    Uiso  ? N
   N12        1.0     0.428724     0.088177     0.579313    Uiso  ? N
   N13        1.0     0.222076     0.540157     0.387328    Uiso  ? N
   N14        1.0     0.112545     0.429190     0.074303    Uiso  ? N
   N15        1.0     0.872185     0.537039     0.881007    Uiso  ? N
   N16        1.0     0.775329     0.425588     0.630413    Uiso  ? N
   N17        1.0     0.557885     0.533148     0.380918    Uiso  ? N
   N18        1.0     0.435690     0.419612     0.137354    Uiso  ? N
   N19        1.0     0.235662     0.554400     0.883449    Uiso  ? N
   N20        1.0     0.113568     0.426053     0.605987    Uiso  ? N
   N21        1.0     0.898001     0.513799     0.390602    Uiso  ? N
   N22        1.0     0.792138     0.422631     0.138063    Uiso  ? N
   N23        1.0     0.557074     0.540634     0.868823    Uiso  ? N
   N24        1.0     0.432718     0.449752     0.631901    Uiso  ? N
   N25        1.0     0.228688     0.854558     0.387695    Uiso  ? N
   N26        1.0     0.107075     0.751877     0.140369    Uiso  ? N
   N27        1.0     0.913288     0.852281     0.886263    Uiso  ? N
   N28        1.0     0.779388     0.760375     0.601723    Uiso  ? N
   N29        1.0     0.540373     0.879586     0.353030    Uiso  ? N
   N30        1.0     0.441178     0.755374     0.138672    Uiso  ? N
   N31        1.0     0.223429     0.872497     0.866586    Uiso  ? N
   N32        1.0     0.110710     0.760802     0.633593    Uiso  ? N
   N33        1.0     0.904373     0.874207     0.388195    Uiso  ? N
   N34        1.0     0.796394     0.749683     0.136022    Uiso  ? N
   N35        1.0     0.540742     0.884120     0.822630    Uiso  ? N
   N36        1.0     0.441448     0.756516     0.626660    Uiso  ? N
