
#======================================================================
# CRYSTAL DATA
#----------------------------------------------------------------------
data_VESTA_phase_1

_chemical_name_common                  'Mg   Al   Hf   N                      '
_cell_length_a                         9.802049
_cell_length_b                         9.815385
_cell_length_c                         10.160183
_cell_angle_alpha                      89.889038
_cell_angle_beta                       89.511978
_cell_angle_gamma                      59.941597
_cell_volume                           846.024879
_space_group_name_H-M_alt              'P 1'
_space_group_IT_number                 1

loop_
_space_group_symop_operation_xyz
   'x, y, z'

loop_
   _atom_site_label
   _atom_site_occupancy
   _atom_site_fract_x
   _atom_site_fract_y
   _atom_site_fract_z
   _atom_site_adp_type
   _atom_site_U_iso_or_equiv
   _atom_site_type_symbol
   Mg1        1.0     0.117890     0.087189     0.339265    Uiso  ? Mg
   Mg2        1.0     0.557623     0.538877     0.074768    Uiso  ? Mg
   Mg3        1.0     0.227520     0.863477     0.079559    Uiso  ? Mg
   Mg4        1.0     0.776704     0.761466     0.822299    Uiso  ? Mg
   Mg5        1.0     0.550361     0.876688     0.118561    Uiso  ? Mg
   Al1        1.0     0.222883     0.216806     0.134399    Uiso  ? Al
   Al2        1.0     0.894763     0.206243     0.570050    Uiso  ? Al
   Al3        1.0     0.429581     0.093566     0.389387    Uiso  ? Al
   Al4        1.0     0.537194     0.221021     0.064151    Uiso  ? Al
   Al5        1.0     0.122130     0.090106     0.889462    Uiso  ? Al
   Al6        1.0     0.214716     0.192251     0.639357    Uiso  ? Al
   Al7        1.0     0.894471     0.223704     0.071780    Uiso  ? Al
   Al8        1.0     0.436375     0.087388     0.885140    Uiso  ? Al
   Al9        1.0     0.121090     0.414934     0.392426    Uiso  ? Al
   Al10       1.0     0.225538     0.542861     0.076222    Uiso  ? Al
   Al11       1.0     0.769047     0.435481     0.818433    Uiso  ? Al
   Al12       1.0     0.884626     0.533025     0.579975    Uiso  ? Al
   Al13       1.0     0.437261     0.433491     0.322332    Uiso  ? Al
   Al14       1.0     0.219405     0.550798     0.575424    Uiso  ? Al
   Al15       1.0     0.775649     0.425879     0.322414    Uiso  ? Al
   Al16       1.0     0.884882     0.538953     0.072301    Uiso  ? Al
   Al17       1.0     0.442043     0.448821     0.821013    Uiso  ? Al
   Al18       1.0     0.553420     0.546385     0.569182    Uiso  ? Al
   Al19       1.0     0.123351     0.751768     0.323343    Uiso  ? Al
   Al20       1.0     0.900284     0.865859     0.577363    Uiso  ? Al
   Al21       1.0     0.438280     0.755131     0.317362    Uiso  ? Al
   Al22       1.0     0.123534     0.764974     0.821090    Uiso  ? Al
   Al23       1.0     0.223460     0.870897     0.568997    Uiso  ? Al
   Al24       1.0     0.905804     0.847244     0.071433    Uiso  ? Al
   Al25       1.0     0.439318     0.761755     0.820709    Uiso  ? Al
   Al26       1.0     0.548109     0.871729     0.628988    Uiso  ? Al
   Hf1        1.0     0.788215     0.091122     0.847796    Uiso  ? Hf
   Hf2        1.0     0.772668     0.097944     0.310148    Uiso  ? Hf
   Hf3        1.0     0.548922     0.209694     0.598456    Uiso  ? Hf
   Hf4        1.0     0.112256     0.432169     0.857627    Uiso  ? Hf
   Hf5        1.0     0.780154     0.752701     0.345751    Uiso  ? Hf
   N1         1.0     0.230323     0.216693     0.322301    Uiso  ? N
   N2         1.0     0.111294     0.109851     0.090279    Uiso  ? N
   N3         1.0     0.894724     0.221952     0.881285    Uiso  ? N
   N4         1.0     0.794141     0.084205     0.634443    Uiso  ? N
   N5         1.0     0.543689     0.213363     0.386664    Uiso  ? N
   N6         1.0     0.433452     0.109066     0.068952    Uiso  ? N
   N7         1.0     0.228026     0.191309     0.825803    Uiso  ? N
   N8         1.0     0.107669     0.090979     0.597563    Uiso  ? N
   N9         1.0     0.874241     0.215921     0.381408    Uiso  ? N
   N10        1.0     0.772522     0.099651     0.096934    Uiso  ? N
   N11        1.0     0.537288     0.221254     0.854562    Uiso  ? N
   N12        1.0     0.426710     0.089274     0.580645    Uiso  ? N
   N13        1.0     0.221614     0.538035     0.387651    Uiso  ? N
   N14        1.0     0.112832     0.429458     0.072103    Uiso  ? N
   N15        1.0     0.872364     0.537656     0.879838    Uiso  ? N
   N16        1.0     0.774883     0.425003     0.629327    Uiso  ? N
   N17        1.0     0.557340     0.533144     0.381112    Uiso  ? N
   N18        1.0     0.435870     0.420025     0.136659    Uiso  ? N
   N19        1.0     0.235733     0.555468     0.882442    Uiso  ? N
   N20        1.0     0.113997     0.424575     0.608844    Uiso  ? N
   N21        1.0     0.898515     0.512409     0.391124    Uiso  ? N
   N22        1.0     0.792096     0.424855     0.138809    Uiso  ? N
   N23        1.0     0.557019     0.541955     0.868081    Uiso  ? N
   N24        1.0     0.432226     0.450179     0.631705    Uiso  ? N
   N25        1.0     0.230345     0.850051     0.383278    Uiso  ? N
   N26        1.0     0.106769     0.749923     0.140416    Uiso  ? N
   N27        1.0     0.913550     0.853323     0.885883    Uiso  ? N
   N28        1.0     0.779554     0.759940     0.601245    Uiso  ? N
   N29        1.0     0.540373     0.879917     0.354157    Uiso  ? N
   N30        1.0     0.444902     0.754421     0.138931    Uiso  ? N
   N31        1.0     0.224104     0.873168     0.870081    Uiso  ? N
   N32        1.0     0.111086     0.761268     0.633146    Uiso  ? N
   N33        1.0     0.905002     0.872190     0.388039    Uiso  ? N
   N34        1.0     0.796869     0.749727     0.136030    Uiso  ? N
   N35        1.0     0.541219     0.884550     0.822182    Uiso  ? N
   N36        1.0     0.440505     0.757214     0.626074    Uiso  ? N
