
#======================================================================
# CRYSTAL DATA
#----------------------------------------------------------------------
data_VESTA_phase_1

_chemical_name_common                  'Mg   Al   Hf   N                      '
_cell_length_a                         9.851322
_cell_length_b                         9.863749
_cell_length_c                         9.968940
_cell_angle_alpha                      89.937065
_cell_angle_beta                       89.395805
_cell_angle_gamma                      60.103157
_cell_volume                           839.725765
_space_group_name_H-M_alt              'P 1'
_space_group_IT_number                 1

loop_
_space_group_symop_operation_xyz
   'x, y, z'

loop_
   _atom_site_label
   _atom_site_occupancy
   _atom_site_fract_x
   _atom_site_fract_y
   _atom_site_fract_z
   _atom_site_adp_type
   _atom_site_U_iso_or_equiv
   _atom_site_type_symbol
   Mg1        1.0     0.117131     0.094763     0.368866    Uiso  ? Mg
   Mg2        1.0     0.567379     0.524886     0.120735    Uiso  ? Mg
   Mg3        1.0     0.211719     0.874943     0.087521    Uiso  ? Mg
   Mg4        1.0     0.772183     0.758326     0.881697    Uiso  ? Mg
   Mg5        1.0     0.551219     0.883997     0.113827    Uiso  ? Mg
   Al1        1.0     0.220679     0.212410     0.134315    Uiso  ? Al
   Al2        1.0     0.900050     0.204703     0.630240    Uiso  ? Al
   Al3        1.0     0.428366     0.094142     0.381121    Uiso  ? Al
   Al4        1.0     0.530082     0.217937     0.140934    Uiso  ? Al
   Al5        1.0     0.117951     0.090206     0.885371    Uiso  ? Al
   Al6        1.0     0.218589     0.190936     0.629737    Uiso  ? Al
   Al7        1.0     0.900181     0.222905     0.133301    Uiso  ? Al
   Al8        1.0     0.436882     0.093289     0.886519    Uiso  ? Al
   Al9        1.0     0.114857     0.419315     0.390418    Uiso  ? Al
   Al10       1.0     0.222425     0.536555     0.094592    Uiso  ? Al
   Al11       1.0     0.778487     0.430050     0.881587    Uiso  ? Al
   Al12       1.0     0.878620     0.541222     0.628523    Uiso  ? Al
   Al13       1.0     0.440583     0.446027     0.383283    Uiso  ? Al
   Al14       1.0     0.215854     0.549887     0.582424    Uiso  ? Al
   Al15       1.0     0.770186     0.431169     0.387685    Uiso  ? Al
   Al16       1.0     0.898337     0.527197     0.133565    Uiso  ? Al
   Al17       1.0     0.443881     0.435274     0.886567    Uiso  ? Al
   Al18       1.0     0.552445     0.549603     0.640621    Uiso  ? Al
   Al19       1.0     0.124477     0.748332     0.321226    Uiso  ? Al
   Al20       1.0     0.898700     0.863864     0.570670    Uiso  ? Al
   Al21       1.0     0.438157     0.759481     0.300957    Uiso  ? Al
   Al22       1.0     0.122326     0.768447     0.814496    Uiso  ? Al
   Al23       1.0     0.233316     0.864658     0.561071    Uiso  ? Al
   Al24       1.0     0.908015     0.847268     0.079624    Uiso  ? Al
   Al25       1.0     0.441414     0.762523     0.894885    Uiso  ? Al
   Al26       1.0     0.546698     0.866833     0.642965    Uiso  ? Al
   Hf1        1.0     0.776492     0.100558     0.891389    Uiso  ? Hf
   Hf2        1.0     0.780961     0.097626     0.347334    Uiso  ? Hf
   Hf3        1.0     0.547546     0.209236     0.616388    Uiso  ? Hf
   Hf4        1.0     0.111730     0.428950     0.858896    Uiso  ? Hf
   Hf5        1.0     0.769877     0.756333     0.352951    Uiso  ? Hf
   N1         1.0     0.226424     0.218277     0.323160    Uiso  ? N
   N2         1.0     0.105925     0.116158     0.077870    Uiso  ? N
   N3         1.0     0.898110     0.209527     0.825080    Uiso  ? N
   N4         1.0     0.789751     0.091458     0.580010    Uiso  ? N
   N5         1.0     0.533916     0.218726     0.341548    Uiso  ? N
   N6         1.0     0.430941     0.117064     0.072843    Uiso  ? N
   N7         1.0     0.229840     0.189245     0.820362    Uiso  ? N
   N8         1.0     0.110462     0.090777     0.579998    Uiso  ? N
   N9         1.0     0.884161     0.226194     0.321098    Uiso  ? N
   N10        1.0     0.774169     0.096185     0.109452    Uiso  ? N
   N11        1.0     0.539877     0.213152     0.826587    Uiso  ? N
   N12        1.0     0.433592     0.084432     0.574093    Uiso  ? N
   N13        1.0     0.219280     0.537949     0.376040    Uiso  ? N
   N14        1.0     0.111205     0.428625     0.074202    Uiso  ? N
   N15        1.0     0.877405     0.536017     0.816335    Uiso  ? N
   N16        1.0     0.775306     0.425426     0.579699    Uiso  ? N
   N17        1.0     0.560222     0.537171     0.330904    Uiso  ? N
   N18        1.0     0.438636     0.419144     0.077150    Uiso  ? N
   N19        1.0     0.231686     0.550173     0.845408    Uiso  ? N
   N20        1.0     0.109618     0.423539     0.592190    Uiso  ? N
   N21        1.0     0.901666     0.513808     0.330708    Uiso  ? N
   N22        1.0     0.797596     0.422963     0.067582    Uiso  ? N
   N23        1.0     0.560632     0.533371     0.837102    Uiso  ? N
   N24        1.0     0.439879     0.446387     0.579182    Uiso  ? N
   N25        1.0     0.231254     0.852072     0.364908    Uiso  ? N
   N26        1.0     0.110329     0.744789     0.135083    Uiso  ? N
   N27        1.0     0.910197     0.863755     0.884097    Uiso  ? N
   N28        1.0     0.772324     0.762334     0.580547    Uiso  ? N
   N29        1.0     0.532475     0.886690     0.326767    Uiso  ? N
   N30        1.0     0.445959     0.756995     0.095523    Uiso  ? N
   N31        1.0     0.221324     0.873470     0.871292    Uiso  ? N
   N32        1.0     0.108567     0.766872     0.622456    Uiso  ? N
   N33        1.0     0.910942     0.858292     0.374823    Uiso  ? N
   N34        1.0     0.794500     0.748209     0.116306    Uiso  ? N
   N35        1.0     0.542138     0.881787     0.838125    Uiso  ? N
   N36        1.0     0.444250     0.759493     0.606069    Uiso  ? N
