
#======================================================================
# CRYSTAL DATA
#----------------------------------------------------------------------
data_VESTA_phase_1

_chemical_name_common                  'Mg   Al   Hf   N                      '
_cell_length_a                         9.778824
_cell_length_b                         9.805808
_cell_length_c                         10.228446
_cell_angle_alpha                      89.867706
_cell_angle_beta                       89.645432
_cell_angle_gamma                      60.197380
_cell_volume                           851.063893
_space_group_name_H-M_alt              'P 1'
_space_group_IT_number                 1

loop_
_space_group_symop_operation_xyz
   'x, y, z'

loop_
   _atom_site_label
   _atom_site_occupancy
   _atom_site_fract_x
   _atom_site_fract_y
   _atom_site_fract_z
   _atom_site_adp_type
   _atom_site_U_iso_or_equiv
   _atom_site_type_symbol
   Mg1        1.0     0.110442     0.093226     0.375978    Uiso  ? Mg
   Mg2        1.0     0.551576     0.544875     0.071994    Uiso  ? Mg
   Mg3        1.0     0.225665     0.868330     0.077098    Uiso  ? Mg
   Mg4        1.0     0.765818     0.756182     0.894618    Uiso  ? Mg
   Mg5        1.0     0.545815     0.884091     0.130598    Uiso  ? Mg
   Al1        1.0     0.223479     0.211124     0.137578    Uiso  ? Al
   Al2        1.0     0.900936     0.204150     0.640397    Uiso  ? Al
   Al3        1.0     0.427754     0.095576     0.391502    Uiso  ? Al
   Al4        1.0     0.532575     0.224894     0.058685    Uiso  ? Al
   Al5        1.0     0.119962     0.092446     0.888960    Uiso  ? Al
   Al6        1.0     0.215532     0.194929     0.634813    Uiso  ? Al
   Al7        1.0     0.900726     0.214612     0.118164    Uiso  ? Al
   Al8        1.0     0.434712     0.087228     0.883403    Uiso  ? Al
   Al9        1.0     0.115672     0.416206     0.392844    Uiso  ? Al
   Al10       1.0     0.227975     0.545288     0.077571    Uiso  ? Al
   Al11       1.0     0.768658     0.435423     0.834796    Uiso  ? Al
   Al12       1.0     0.883493     0.539160     0.634325    Uiso  ? Al
   Al13       1.0     0.435235     0.434155     0.321468    Uiso  ? Al
   Al14       1.0     0.219003     0.548620     0.570972    Uiso  ? Al
   Al15       1.0     0.767081     0.428901     0.309075    Uiso  ? Al
   Al16       1.0     0.902442     0.533099     0.137012    Uiso  ? Al
   Al17       1.0     0.441642     0.449772     0.817922    Uiso  ? Al
   Al18       1.0     0.557731     0.544780     0.565435    Uiso  ? Al
   Al19       1.0     0.124049     0.752821     0.324230    Uiso  ? Al
   Al20       1.0     0.900587     0.865129     0.577044    Uiso  ? Al
   Al21       1.0     0.434703     0.758725     0.315332    Uiso  ? Al
   Al22       1.0     0.122947     0.763306     0.819816    Uiso  ? Al
   Al23       1.0     0.227367     0.865767     0.570811    Uiso  ? Al
   Al24       1.0     0.910417     0.848151     0.072637    Uiso  ? Al
   Al25       1.0     0.438829     0.762571     0.818398    Uiso  ? Al
   Al26       1.0     0.556489     0.868452     0.635091    Uiso  ? Al
   Hf1        1.0     0.786453     0.086174     0.856145    Uiso  ? Hf
   Hf2        1.0     0.764827     0.092223     0.302381    Uiso  ? Hf
   Hf3        1.0     0.551682     0.209732     0.598241    Uiso  ? Hf
   Hf4        1.0     0.114399     0.428740     0.869958    Uiso  ? Hf
   Hf5        1.0     0.776831     0.754146     0.361477    Uiso  ? Hf
   N1         1.0     0.228279     0.214697     0.323624    Uiso  ? N
   N2         1.0     0.109759     0.114554     0.073931    Uiso  ? N
   N3         1.0     0.902525     0.212547     0.837163    Uiso  ? N
   N4         1.0     0.794156     0.078540     0.638740    Uiso  ? N
   N5         1.0     0.541612     0.217192     0.388614    Uiso  ? N
   N6         1.0     0.429742     0.111507     0.066384    Uiso  ? N
   N7         1.0     0.228118     0.191827     0.819661    Uiso  ? N
   N8         1.0     0.107433     0.092775     0.584372    Uiso  ? N
   N9         1.0     0.880349     0.209586     0.311946    Uiso  ? N
   N10        1.0     0.770557     0.097370     0.088669    Uiso  ? N
   N11        1.0     0.534784     0.223750     0.855458    Uiso  ? N
   N12        1.0     0.430601     0.086251     0.581238    Uiso  ? N
   N13        1.0     0.220999     0.538681     0.384523    Uiso  ? N
   N14        1.0     0.113275     0.429526     0.076004    Uiso  ? N
   N15        1.0     0.882496     0.538643     0.822310    Uiso  ? N
   N16        1.0     0.772581     0.424298     0.619964    Uiso  ? N
   N17        1.0     0.556444     0.535124     0.376743    Uiso  ? N
   N18        1.0     0.436771     0.419823     0.136689    Uiso  ? N
   N19        1.0     0.236835     0.554155     0.883569    Uiso  ? N
   N20        1.0     0.111055     0.422653     0.591599    Uiso  ? N
   N21        1.0     0.905136     0.512163     0.331548    Uiso  ? N
   N22        1.0     0.787244     0.430499     0.112577    Uiso  ? N
   N23        1.0     0.554964     0.544702     0.868657    Uiso  ? N
   N24        1.0     0.431652     0.451061     0.630393    Uiso  ? N
   N25        1.0     0.231983     0.849203     0.386569    Uiso  ? N
   N26        1.0     0.109352     0.750885     0.141856    Uiso  ? N
   N27        1.0     0.916769     0.849112     0.888455    Uiso  ? N
   N28        1.0     0.778240     0.756543     0.579319    Uiso  ? N
   N29        1.0     0.538543     0.885745     0.345844    Uiso  ? N
   N30        1.0     0.441272     0.758669     0.138269    Uiso  ? N
   N31        1.0     0.223699     0.874236     0.865558    Uiso  ? N
   N32        1.0     0.111559     0.758236     0.632903    Uiso  ? N
   N33        1.0     0.906876     0.872701     0.386816    Uiso  ? N
   N34        1.0     0.792160     0.755394     0.121787    Uiso  ? N
   N35        1.0     0.546193     0.882672     0.823742    Uiso  ? N
   N36        1.0     0.444848     0.756054     0.625952    Uiso  ? N
