
#======================================================================
# CRYSTAL DATA
#----------------------------------------------------------------------
data_VESTA_phase_1

_chemical_name_common                  'Mg   Al   Hf   N                      '
_cell_length_a                         9.824100
_cell_length_b                         9.840459
_cell_length_c                         10.118767
_cell_angle_alpha                      89.853928
_cell_angle_beta                       89.683479
_cell_angle_gamma                      59.951740
_cell_volume                           846.736581
_space_group_name_H-M_alt              'P 1'
_space_group_IT_number                 1

loop_
_space_group_symop_operation_xyz
   'x, y, z'

loop_
   _atom_site_label
   _atom_site_occupancy
   _atom_site_fract_x
   _atom_site_fract_y
   _atom_site_fract_z
   _atom_site_adp_type
   _atom_site_U_iso_or_equiv
   _atom_site_type_symbol
   Mg1        1.0     0.121580     0.090377     0.372991    Uiso  ? Mg
   Mg2        1.0     0.553590     0.536577     0.076427    Uiso  ? Mg
   Mg3        1.0     0.223291     0.867528     0.076132    Uiso  ? Mg
   Mg4        1.0     0.768677     0.759212     0.888186    Uiso  ? Mg
   Mg5        1.0     0.544091     0.879186     0.119785    Uiso  ? Mg
   Al1        1.0     0.220958     0.212095     0.132963    Uiso  ? Al
   Al2        1.0     0.899510     0.205140     0.633538    Uiso  ? Al
   Al3        1.0     0.428189     0.092324     0.385118    Uiso  ? Al
   Al4        1.0     0.534269     0.209797     0.143644    Uiso  ? Al
   Al5        1.0     0.116004     0.092485     0.885557    Uiso  ? Al
   Al6        1.0     0.217127     0.193760     0.633274    Uiso  ? Al
   Al7        1.0     0.901175     0.222419     0.133394    Uiso  ? Al
   Al8        1.0     0.438866     0.092646     0.884426    Uiso  ? Al
   Al9        1.0     0.116986     0.417508     0.389709    Uiso  ? Al
   Al10       1.0     0.228355     0.541495     0.073595    Uiso  ? Al
   Al11       1.0     0.778245     0.431924     0.882039    Uiso  ? Al
   Al12       1.0     0.881047     0.540729     0.631067    Uiso  ? Al
   Al13       1.0     0.433506     0.442678     0.324325    Uiso  ? Al
   Al14       1.0     0.216254     0.550951     0.571308    Uiso  ? Al
   Al15       1.0     0.780776     0.424505     0.387262    Uiso  ? Al
   Al16       1.0     0.898925     0.526982     0.133680    Uiso  ? Al
   Al17       1.0     0.441567     0.446897     0.815154    Uiso  ? Al
   Al18       1.0     0.550361     0.550436     0.572078    Uiso  ? Al
   Al19       1.0     0.128251     0.747162     0.319578    Uiso  ? Al
   Al20       1.0     0.900387     0.861684     0.570260    Uiso  ? Al
   Al21       1.0     0.435947     0.756528     0.311752    Uiso  ? Al
   Al22       1.0     0.116635     0.769487     0.821063    Uiso  ? Al
   Al23       1.0     0.225804     0.867244     0.570884    Uiso  ? Al
   Al24       1.0     0.906584     0.850029     0.082645    Uiso  ? Al
   Al25       1.0     0.438770     0.761839     0.823223    Uiso  ? Al
   Al26       1.0     0.554068     0.870171     0.636186    Uiso  ? Al
   Hf1        1.0     0.770906     0.105683     0.895247    Uiso  ? Hf
   Hf2        1.0     0.785642     0.095145     0.350708    Uiso  ? Hf
   Hf3        1.0     0.548509     0.208782     0.606773    Uiso  ? Hf
   Hf4        1.0     0.112432     0.429061     0.863326    Uiso  ? Hf
   Hf5        1.0     0.772965     0.755341     0.350685    Uiso  ? Hf
   N1         1.0     0.228114     0.216566     0.320435    Uiso  ? N
   N2         1.0     0.106783     0.113906     0.074453    Uiso  ? N
   N3         1.0     0.895183     0.210908     0.825217    Uiso  ? N
   N4         1.0     0.793107     0.090426     0.577526    Uiso  ? N
   N5         1.0     0.538823     0.210716     0.354710    Uiso  ? N
   N6         1.0     0.433377     0.113940     0.069910    Uiso  ? N
   N7         1.0     0.228837     0.190610     0.821159    Uiso  ? N
   N8         1.0     0.109741     0.092750     0.583467    Uiso  ? N
   N9         1.0     0.889001     0.223303     0.318234    Uiso  ? N
   N10        1.0     0.771062     0.097391     0.111732    Uiso  ? N
   N11        1.0     0.539143     0.213231     0.820568    Uiso  ? N
   N12        1.0     0.430447     0.086145     0.574860    Uiso  ? N
   N13        1.0     0.221785     0.537615     0.384409    Uiso  ? N
   N14        1.0     0.111442     0.429270     0.072364    Uiso  ? N
   N15        1.0     0.878538     0.537217     0.816682    Uiso  ? N
   N16        1.0     0.782273     0.423063     0.577572    Uiso  ? N
   N17        1.0     0.554563     0.537586     0.379652    Uiso  ? N
   N18        1.0     0.432908     0.424319     0.138424    Uiso  ? N
   N19        1.0     0.234187     0.554159     0.877886    Uiso  ? N
   N20        1.0     0.111099     0.423872     0.592328    Uiso  ? N
   N21        1.0     0.904282     0.512129     0.328253    Uiso  ? N
   N22        1.0     0.796960     0.423599     0.068502    Uiso  ? N
   N23        1.0     0.558994     0.537841     0.860181    Uiso  ? N
   N24        1.0     0.430170     0.452347     0.623519    Uiso  ? N
   N25        1.0     0.231627     0.847543     0.383296    Uiso  ? N
   N26        1.0     0.111229     0.746745     0.136369    Uiso  ? N
   N27        1.0     0.906290     0.867227     0.889736    Uiso  ? N
   N28        1.0     0.774750     0.760075     0.577496    Uiso  ? N
   N29        1.0     0.534327     0.883379     0.340077    Uiso  ? N
   N30        1.0     0.441358     0.754032     0.131729    Uiso  ? N
   N31        1.0     0.221978     0.874452     0.864734    Uiso  ? N
   N32        1.0     0.107304     0.761814     0.632394    Uiso  ? N
   N33        1.0     0.915404     0.855473     0.377101    Uiso  ? N
   N34        1.0     0.791572     0.750739     0.118629    Uiso  ? N
   N35        1.0     0.543530     0.884088     0.828448    Uiso  ? N
   N36        1.0     0.441926     0.760094     0.628265    Uiso  ? N
