
#======================================================================
# CRYSTAL DATA
#----------------------------------------------------------------------
data_VESTA_phase_1

_chemical_name_common                  'Mg   Al   Hf   N                      '
_cell_length_a                         9.850607
_cell_length_b                         9.864211
_cell_length_c                         9.965060
_cell_angle_alpha                      89.945251
_cell_angle_beta                       89.403702
_cell_angle_gamma                      60.108433
_cell_volume                           839.422692
_space_group_name_H-M_alt              'P 1'
_space_group_IT_number                 1

loop_
_space_group_symop_operation_xyz
   'x, y, z'

loop_
   _atom_site_label
   _atom_site_occupancy
   _atom_site_fract_x
   _atom_site_fract_y
   _atom_site_fract_z
   _atom_site_adp_type
   _atom_site_U_iso_or_equiv
   _atom_site_type_symbol
   Mg1        1.0     0.117084     0.094904     0.368899    Uiso  ? Mg
   Mg2        1.0     0.567273     0.524898     0.120480    Uiso  ? Mg
   Mg3        1.0     0.211761     0.874847     0.087435    Uiso  ? Mg
   Mg4        1.0     0.772222     0.758241     0.881527    Uiso  ? Mg
   Mg5        1.0     0.551264     0.883981     0.113726    Uiso  ? Mg
   Al1        1.0     0.220793     0.212082     0.134402    Uiso  ? Al
   Al2        1.0     0.900045     0.204749     0.630211    Uiso  ? Al
   Al3        1.0     0.428382     0.094147     0.381063    Uiso  ? Al
   Al4        1.0     0.530289     0.217792     0.140687    Uiso  ? Al
   Al5        1.0     0.117949     0.090215     0.885249    Uiso  ? Al
   Al6        1.0     0.218481     0.191196     0.629721    Uiso  ? Al
   Al7        1.0     0.900156     0.222894     0.133240    Uiso  ? Al
   Al8        1.0     0.436866     0.093344     0.886420    Uiso  ? Al
   Al9        1.0     0.114981     0.419356     0.390682    Uiso  ? Al
   Al10       1.0     0.222839     0.534803     0.104574    Uiso  ? Al
   Al11       1.0     0.778512     0.430016     0.881488    Uiso  ? Al
   Al12       1.0     0.878832     0.541120     0.628490    Uiso  ? Al
   Al13       1.0     0.440568     0.446119     0.383410    Uiso  ? Al
   Al14       1.0     0.216487     0.549271     0.587442    Uiso  ? Al
   Al15       1.0     0.770165     0.431213     0.387649    Uiso  ? Al
   Al16       1.0     0.898113     0.527280     0.133671    Uiso  ? Al
   Al17       1.0     0.442451     0.436007     0.886447    Uiso  ? Al
   Al18       1.0     0.552446     0.549571     0.640626    Uiso  ? Al
   Al19       1.0     0.124071     0.749270     0.321833    Uiso  ? Al
   Al20       1.0     0.898517     0.864016     0.570557    Uiso  ? Al
   Al21       1.0     0.438238     0.759460     0.300850    Uiso  ? Al
   Al22       1.0     0.122298     0.768489     0.813941    Uiso  ? Al
   Al23       1.0     0.233295     0.864823     0.560980    Uiso  ? Al
   Al24       1.0     0.908229     0.846994     0.079402    Uiso  ? Al
   Al25       1.0     0.441433     0.762473     0.894808    Uiso  ? Al
   Al26       1.0     0.546685     0.866837     0.642926    Uiso  ? Al
   Hf1        1.0     0.776523     0.100474     0.891175    Uiso  ? Hf
   Hf2        1.0     0.780843     0.097742     0.347294    Uiso  ? Hf
   Hf3        1.0     0.547532     0.209254     0.616389    Uiso  ? Hf
   Hf4        1.0     0.112091     0.429258     0.859760    Uiso  ? Hf
   Hf5        1.0     0.769823     0.756325     0.352971    Uiso  ? Hf
   N1         1.0     0.226420     0.218261     0.323179    Uiso  ? N
   N2         1.0     0.105914     0.116151     0.077805    Uiso  ? N
   N3         1.0     0.898103     0.209509     0.825080    Uiso  ? N
   N4         1.0     0.789652     0.091553     0.580033    Uiso  ? N
   N5         1.0     0.533942     0.218678     0.341361    Uiso  ? N
   N6         1.0     0.430930     0.117039     0.072818    Uiso  ? N
   N7         1.0     0.229679     0.189574     0.820426    Uiso  ? N
   N8         1.0     0.110461     0.090899     0.580062    Uiso  ? N
   N9         1.0     0.884148     0.226223     0.321085    Uiso  ? N
   N10        1.0     0.774051     0.096355     0.109278    Uiso  ? N
   N11        1.0     0.539859     0.213207     0.826669    Uiso  ? N
   N12        1.0     0.433591     0.084442     0.574113    Uiso  ? N
   N13        1.0     0.219800     0.537305     0.372425    Uiso  ? N
   N14        1.0     0.111449     0.428918     0.074787    Uiso  ? N
   N15        1.0     0.877806     0.535786     0.816382    Uiso  ? N
   N16        1.0     0.775288     0.425461     0.579750    Uiso  ? N
   N17        1.0     0.560256     0.537168     0.330724    Uiso  ? N
   N18        1.0     0.437657     0.419533     0.076966    Uiso  ? N
   N19        1.0     0.232463     0.548970     0.837376    Uiso  ? N
   N20        1.0     0.109597     0.423576     0.591438    Uiso  ? N
   N21        1.0     0.901651     0.513835     0.330717    Uiso  ? N
   N22        1.0     0.797622     0.422938     0.067548    Uiso  ? N
   N23        1.0     0.560475     0.533272     0.837273    Uiso  ? N
   N24        1.0     0.440117     0.446260     0.578434    Uiso  ? N
   N25        1.0     0.231387     0.852361     0.364866    Uiso  ? N
   N26        1.0     0.110253     0.745109     0.135161    Uiso  ? N
   N27        1.0     0.910368     0.863553     0.883934    Uiso  ? N
   N28        1.0     0.772321     0.762327     0.580608    Uiso  ? N
   N29        1.0     0.532485     0.886698     0.326742    Uiso  ? N
   N30        1.0     0.445988     0.757001     0.095469    Uiso  ? N
   N31        1.0     0.221303     0.873347     0.871247    Uiso  ? N
   N32        1.0     0.108240     0.767691     0.621480    Uiso  ? N
   N33        1.0     0.910654     0.858481     0.374750    Uiso  ? N
   N34        1.0     0.794532     0.748177     0.116219    Uiso  ? N
   N35        1.0     0.542117     0.881807     0.838142    Uiso  ? N
   N36        1.0     0.444236     0.759455     0.606126    Uiso  ? N
