
#======================================================================
# CRYSTAL DATA
#----------------------------------------------------------------------
data_VESTA_phase_1

_chemical_name_common                  'Mg   Al   Hf   N                      '
_cell_length_a                         9.841188
_cell_length_b                         9.853593
_cell_length_c                         10.015560
_cell_angle_alpha                      89.905983
_cell_angle_beta                       89.439262
_cell_angle_gamma                      60.105953
_cell_volume                           841.951158
_space_group_name_H-M_alt              'P 1'
_space_group_IT_number                 1

loop_
_space_group_symop_operation_xyz
   'x, y, z'

loop_
   _atom_site_label
   _atom_site_occupancy
   _atom_site_fract_x
   _atom_site_fract_y
   _atom_site_fract_z
   _atom_site_adp_type
   _atom_site_U_iso_or_equiv
   _atom_site_type_symbol
   Mg1        1.0     0.119712     0.090637     0.370573    Uiso  ? Mg
   Mg2        1.0     0.567321     0.526260     0.120572    Uiso  ? Mg
   Mg3        1.0     0.214907     0.872878     0.079283    Uiso  ? Mg
   Mg4        1.0     0.772141     0.758031     0.886519    Uiso  ? Mg
   Mg5        1.0     0.549085     0.883256     0.112535    Uiso  ? Mg
   Al1        1.0     0.220010     0.213464     0.133455    Uiso  ? Al
   Al2        1.0     0.899814     0.204022     0.630732    Uiso  ? Al
   Al3        1.0     0.428355     0.093814     0.380898    Uiso  ? Al
   Al4        1.0     0.528629     0.219156     0.142678    Uiso  ? Al
   Al5        1.0     0.115718     0.092649     0.885016    Uiso  ? Al
   Al6        1.0     0.218909     0.190369     0.630113    Uiso  ? Al
   Al7        1.0     0.901255     0.222191     0.134267    Uiso  ? Al
   Al8        1.0     0.436788     0.094648     0.887537    Uiso  ? Al
   Al9        1.0     0.114908     0.418392     0.388679    Uiso  ? Al
   Al10       1.0     0.221681     0.542977     0.071831    Uiso  ? Al
   Al11       1.0     0.778762     0.429777     0.882670    Uiso  ? Al
   Al12       1.0     0.878114     0.541662     0.628560    Uiso  ? Al
   Al13       1.0     0.440405     0.445909     0.382296    Uiso  ? Al
   Al14       1.0     0.213983     0.551309     0.573059    Uiso  ? Al
   Al15       1.0     0.771569     0.430021     0.387178    Uiso  ? Al
   Al16       1.0     0.899909     0.526533     0.132996    Uiso  ? Al
   Al17       1.0     0.447930     0.433244     0.888434    Uiso  ? Al
   Al18       1.0     0.554855     0.545700     0.640109    Uiso  ? Al
   Al19       1.0     0.127170     0.746248     0.318847    Uiso  ? Al
   Al20       1.0     0.899001     0.862931     0.569562    Uiso  ? Al
   Al21       1.0     0.436459     0.759676     0.296132    Uiso  ? Al
   Al22       1.0     0.118504     0.769481     0.817124    Uiso  ? Al
   Al23       1.0     0.233015     0.863274     0.566831    Uiso  ? Al
   Al24       1.0     0.907184     0.849694     0.082283    Uiso  ? Al
   Al25       1.0     0.439031     0.764619     0.867118    Uiso  ? Al
   Al26       1.0     0.549908     0.868396     0.642817    Uiso  ? Al
   Hf1        1.0     0.774609     0.102316     0.894286    Uiso  ? Hf
   Hf2        1.0     0.781430     0.097263     0.347682    Uiso  ? Hf
   Hf3        1.0     0.547365     0.209505     0.616292    Uiso  ? Hf
   Hf4        1.0     0.110835     0.428998     0.856807    Uiso  ? Hf
   Hf5        1.0     0.770299     0.756037     0.350949    Uiso  ? Hf
   N1         1.0     0.226191     0.217250     0.322289    Uiso  ? N
   N2         1.0     0.106142     0.115686     0.076480    Uiso  ? N
   N3         1.0     0.896712     0.210065     0.824732    Uiso  ? N
   N4         1.0     0.789710     0.090968     0.578949    Uiso  ? N
   N5         1.0     0.533633     0.218761     0.342123    Uiso  ? N
   N6         1.0     0.431046     0.117273     0.073018    Uiso  ? N
   N7         1.0     0.229928     0.189267     0.819933    Uiso  ? N
   N8         1.0     0.110501     0.090126     0.581213    Uiso  ? N
   N9         1.0     0.886340     0.224524     0.321258    Uiso  ? N
   N10        1.0     0.774362     0.095910     0.111306    Uiso  ? N
   N11        1.0     0.538783     0.214360     0.825686    Uiso  ? N
   N12        1.0     0.433492     0.084473     0.573258    Uiso  ? N
   N13        1.0     0.218207     0.538206     0.379346    Uiso  ? N
   N14        1.0     0.110956     0.428694     0.070882    Uiso  ? N
   N15        1.0     0.876094     0.537055     0.815870    Uiso  ? N
   N16        1.0     0.776161     0.424819     0.578612    Uiso  ? N
   N17        1.0     0.560742     0.537299     0.333141    Uiso  ? N
   N18        1.0     0.441164     0.418388     0.077699    Uiso  ? N
   N19        1.0     0.229398     0.555147     0.867367    Uiso  ? N
   N20        1.0     0.110063     0.423642     0.593786    Uiso  ? N
   N21        1.0     0.902340     0.513116     0.329683    Uiso  ? N
   N22        1.0     0.798120     0.422468     0.067786    Uiso  ? N
   N23        1.0     0.563012     0.529872     0.835062    Uiso  ? N
   N24        1.0     0.438263     0.447284     0.579647    Uiso  ? N
   N25        1.0     0.235130     0.846597     0.372970    Uiso  ? N
   N26        1.0     0.111230     0.745783     0.134564    Uiso  ? N
   N27        1.0     0.907859     0.865808     0.886851    Uiso  ? N
   N28        1.0     0.772258     0.761669     0.578463    Uiso  ? N
   N29        1.0     0.532186     0.885698     0.328607    Uiso  ? N
   N30        1.0     0.444767     0.756928     0.098454    Uiso  ? N
   N31        1.0     0.217726     0.876507     0.867756    Uiso  ? N
   N32        1.0     0.107806     0.763431     0.626969    Uiso  ? N
   N33        1.0     0.912761     0.857350     0.374621    Uiso  ? N
   N34        1.0     0.794184     0.748738     0.117032    Uiso  ? N
   N35        1.0     0.544659     0.884737     0.836881    Uiso  ? N
   N36        1.0     0.440868     0.761144     0.629289    Uiso  ? N
