
#======================================================================
# CRYSTAL DATA
#----------------------------------------------------------------------
data_VESTA_phase_1

_chemical_name_common                  'Mg   Al   Hf   N                      '
_cell_length_a                         9.804246
_cell_length_b                         9.816724
_cell_length_c                         10.153107
_cell_angle_alpha                      89.885353
_cell_angle_beta                       89.510902
_cell_angle_gamma                      59.926006
_cell_volume                           845.607309
_space_group_name_H-M_alt              'P 1'
_space_group_IT_number                 1

loop_
_space_group_symop_operation_xyz
   'x, y, z'

loop_
   _atom_site_label
   _atom_site_occupancy
   _atom_site_fract_x
   _atom_site_fract_y
   _atom_site_fract_z
   _atom_site_adp_type
   _atom_site_U_iso_or_equiv
   _atom_site_type_symbol
   Mg1        1.0     0.117623     0.086526     0.330222    Uiso  ? Mg
   Mg2        1.0     0.557580     0.538869     0.075146    Uiso  ? Mg
   Mg3        1.0     0.227237     0.864508     0.077905    Uiso  ? Mg
   Mg4        1.0     0.776587     0.761368     0.822472    Uiso  ? Mg
   Mg5        1.0     0.550172     0.876510     0.118769    Uiso  ? Mg
   Al1        1.0     0.222893     0.216916     0.133986    Uiso  ? Al
   Al2        1.0     0.895561     0.205704     0.571026    Uiso  ? Al
   Al3        1.0     0.429605     0.093513     0.389162    Uiso  ? Al
   Al4        1.0     0.537254     0.220922     0.064584    Uiso  ? Al
   Al5        1.0     0.120922     0.089371     0.880173    Uiso  ? Al
   Al6        1.0     0.215040     0.193104     0.639251    Uiso  ? Al
   Al7        1.0     0.895799     0.223324     0.071027    Uiso  ? Al
   Al8        1.0     0.436398     0.087251     0.885633    Uiso  ? Al
   Al9        1.0     0.121020     0.415223     0.392190    Uiso  ? Al
   Al10       1.0     0.225533     0.543184     0.076577    Uiso  ? Al
   Al11       1.0     0.768883     0.435624     0.818413    Uiso  ? Al
   Al12       1.0     0.884569     0.533100     0.579905    Uiso  ? Al
   Al13       1.0     0.437362     0.433490     0.322375    Uiso  ? Al
   Al14       1.0     0.219479     0.550803     0.575317    Uiso  ? Al
   Al15       1.0     0.776177     0.425488     0.322693    Uiso  ? Al
   Al16       1.0     0.884704     0.538924     0.072600    Uiso  ? Al
   Al17       1.0     0.442052     0.448651     0.821172    Uiso  ? Al
   Al18       1.0     0.553528     0.546261     0.569196    Uiso  ? Al
   Al19       1.0     0.123449     0.752439     0.323541    Uiso  ? Al
   Al20       1.0     0.900146     0.865912     0.577483    Uiso  ? Al
   Al21       1.0     0.437847     0.755545     0.317690    Uiso  ? Al
   Al22       1.0     0.123411     0.764417     0.820983    Uiso  ? Al
   Al23       1.0     0.222998     0.871603     0.569951    Uiso  ? Al
   Al24       1.0     0.905776     0.847333     0.071682    Uiso  ? Al
   Al25       1.0     0.439766     0.761189     0.820660    Uiso  ? Al
   Al26       1.0     0.548072     0.871680     0.628920    Uiso  ? Al
   Hf1        1.0     0.787663     0.090981     0.848275    Uiso  ? Hf
   Hf2        1.0     0.773253     0.098354     0.310381    Uiso  ? Hf
   Hf3        1.0     0.548959     0.209614     0.598501    Uiso  ? Hf
   Hf4        1.0     0.112186     0.432411     0.858173    Uiso  ? Hf
   Hf5        1.0     0.780107     0.752949     0.345761    Uiso  ? Hf
   N1         1.0     0.230215     0.216735     0.322663    Uiso  ? N
   N2         1.0     0.111255     0.109388     0.092873    Uiso  ? N
   N3         1.0     0.894469     0.221871     0.880957    Uiso  ? N
   N4         1.0     0.793887     0.084106     0.634721    Uiso  ? N
   N5         1.0     0.544068     0.213238     0.386565    Uiso  ? N
   N6         1.0     0.433643     0.108951     0.069423    Uiso  ? N
   N7         1.0     0.228668     0.192070     0.826081    Uiso  ? N
   N8         1.0     0.106745     0.090165     0.607409    Uiso  ? N
   N9         1.0     0.876017     0.215243     0.382474    Uiso  ? N
   N10        1.0     0.772559     0.099495     0.096875    Uiso  ? N
   N11        1.0     0.537065     0.221186     0.854708    Uiso  ? N
   N12        1.0     0.426694     0.089200     0.580420    Uiso  ? N
   N13        1.0     0.221665     0.538387     0.387476    Uiso  ? N
   N14        1.0     0.112695     0.429803     0.072516    Uiso  ? N
   N15        1.0     0.872254     0.537535     0.880009    Uiso  ? N
   N16        1.0     0.774945     0.425061     0.629342    Uiso  ? N
   N17        1.0     0.557443     0.533039     0.381054    Uiso  ? N
   N18        1.0     0.435865     0.420043     0.136704    Uiso  ? N
   N19        1.0     0.235825     0.555317     0.882652    Uiso  ? N
   N20        1.0     0.113960     0.424703     0.608467    Uiso  ? N
   N21        1.0     0.898459     0.512703     0.390962    Uiso  ? N
   N22        1.0     0.792214     0.424406     0.138822    Uiso  ? N
   N23        1.0     0.557070     0.541688     0.868261    Uiso  ? N
   N24        1.0     0.432275     0.450107     0.631737    Uiso  ? N
   N25        1.0     0.229533     0.851840     0.384128    Uiso  ? N
   N26        1.0     0.106871     0.750438     0.140452    Uiso  ? N
   N27        1.0     0.913532     0.853100     0.885911    Uiso  ? N
   N28        1.0     0.779483     0.759991     0.601285    Uiso  ? N
   N29        1.0     0.540351     0.879841     0.354126    Uiso  ? N
   N30        1.0     0.444183     0.754662     0.139078    Uiso  ? N
   N31        1.0     0.224542     0.872081     0.869606    Uiso  ? N
   N32        1.0     0.110948     0.761081     0.633091    Uiso  ? N
   N33        1.0     0.904872     0.872507     0.387984    Uiso  ? N
   N34        1.0     0.796770     0.749742     0.135973    Uiso  ? N
   N35        1.0     0.541070     0.884501     0.822330    Uiso  ? N
   N36        1.0     0.440650     0.757085     0.626030    Uiso  ? N
