
#======================================================================
# CRYSTAL DATA
#----------------------------------------------------------------------
data_VESTA_phase_1

_chemical_name_common                  'Mg   Al   Hf   N                      '
_cell_length_a                         9.773601
_cell_length_b                         9.788633
_cell_length_c                         10.273216
_cell_angle_alpha                      89.569351
_cell_angle_beta                       89.334854
_cell_angle_gamma                      60.088989
_cell_volume                           851.868035
_space_group_name_H-M_alt              'P 1'
_space_group_IT_number                 1

loop_
_space_group_symop_operation_xyz
   'x, y, z'

loop_
   _atom_site_label
   _atom_site_occupancy
   _atom_site_fract_x
   _atom_site_fract_y
   _atom_site_fract_z
   _atom_site_adp_type
   _atom_site_U_iso_or_equiv
   _atom_site_type_symbol
   Mg1        1.0     0.119344     0.088672     0.364288    Uiso  ? Mg
   Mg2        1.0     0.559132     0.540924     0.071391    Uiso  ? Mg
   Mg3        1.0     0.227082     0.865478     0.079946    Uiso  ? Mg
   Mg4        1.0     0.771721     0.762901     0.847165    Uiso  ? Mg
   Mg5        1.0     0.550630     0.879326     0.127687    Uiso  ? Mg
   Al1        1.0     0.225039     0.210339     0.138224    Uiso  ? Al
   Al2        1.0     0.892327     0.206792     0.566848    Uiso  ? Al
   Al3        1.0     0.428565     0.094571     0.391089    Uiso  ? Al
   Al4        1.0     0.538203     0.221127     0.061600    Uiso  ? Al
   Al5        1.0     0.123863     0.090218     0.892322    Uiso  ? Al
   Al6        1.0     0.212921     0.195262     0.636834    Uiso  ? Al
   Al7        1.0     0.893460     0.225318     0.068508    Uiso  ? Al
   Al8        1.0     0.436118     0.087967     0.883776    Uiso  ? Al
   Al9        1.0     0.118373     0.415154     0.394734    Uiso  ? Al
   Al10       1.0     0.227270     0.544513     0.078000    Uiso  ? Al
   Al11       1.0     0.767111     0.431885     0.809734    Uiso  ? Al
   Al12       1.0     0.888146     0.537011     0.626443    Uiso  ? Al
   Al13       1.0     0.436035     0.433500     0.320104    Uiso  ? Al
   Al14       1.0     0.218753     0.548654     0.571213    Uiso  ? Al
   Al15       1.0     0.770130     0.423835     0.321532    Uiso  ? Al
   Al16       1.0     0.900762     0.532573     0.148514    Uiso  ? Al
   Al17       1.0     0.441339     0.447824     0.819361    Uiso  ? Al
   Al18       1.0     0.552045     0.546568     0.565583    Uiso  ? Al
   Al19       1.0     0.123308     0.751571     0.322466    Uiso  ? Al
   Al20       1.0     0.901688     0.866904     0.576347    Uiso  ? Al
   Al21       1.0     0.436268     0.755311     0.315232    Uiso  ? Al
   Al22       1.0     0.122938     0.762763     0.821015    Uiso  ? Al
   Al23       1.0     0.225340     0.867202     0.568279    Uiso  ? Al
   Al24       1.0     0.905551     0.849260     0.073659    Uiso  ? Al
   Al25       1.0     0.438235     0.761838     0.818179    Uiso  ? Al
   Al26       1.0     0.549537     0.871733     0.630163    Uiso  ? Al
   Hf1        1.0     0.789683     0.090560     0.846501    Uiso  ? Hf
   Hf2        1.0     0.773146     0.097270     0.306358    Uiso  ? Hf
   Hf3        1.0     0.550705     0.209829     0.595317    Uiso  ? Hf
   Hf4        1.0     0.109560     0.428929     0.874110    Uiso  ? Hf
   Hf5        1.0     0.775091     0.757911     0.361370    Uiso  ? Hf
   N1         1.0     0.230719     0.215860     0.322115    Uiso  ? N
   N2         1.0     0.111307     0.111826     0.082247    Uiso  ? N
   N3         1.0     0.895026     0.224078     0.879080    Uiso  ? N
   N4         1.0     0.795677     0.082836     0.636034    Uiso  ? N
   N5         1.0     0.544929     0.212651     0.386215    Uiso  ? N
   N6         1.0     0.432073     0.109870     0.065952    Uiso  ? N
   N7         1.0     0.227588     0.192535     0.821507    Uiso  ? N
   N8         1.0     0.109361     0.091630     0.584610    Uiso  ? N
   N9         1.0     0.871937     0.215529     0.380925    Uiso  ? N
   N10        1.0     0.773456     0.100279     0.094866    Uiso  ? N
   N11        1.0     0.539165     0.220771     0.855496    Uiso  ? N
   N12        1.0     0.427592     0.089555     0.580664    Uiso  ? N
   N13        1.0     0.222362     0.538180     0.385149    Uiso  ? N
   N14        1.0     0.108608     0.430654     0.079156    Uiso  ? N
   N15        1.0     0.883002     0.534926     0.813909    Uiso  ? N
   N16        1.0     0.771040     0.422801     0.620200    Uiso  ? N
   N17        1.0     0.554265     0.534377     0.379919    Uiso  ? N
   N18        1.0     0.436987     0.419170     0.135907    Uiso  ? N
   N19        1.0     0.234969     0.552235     0.884261    Uiso  ? N
   N20        1.0     0.113634     0.420848     0.589923    Uiso  ? N
   N21        1.0     0.904073     0.513271     0.345322    Uiso  ? N
   N22        1.0     0.788829     0.422942     0.137480    Uiso  ? N
   N23        1.0     0.557632     0.541848     0.866283    Uiso  ? N
   N24        1.0     0.430315     0.449948     0.631930    Uiso  ? N
   N25        1.0     0.231287     0.847432     0.384434    Uiso  ? N
   N26        1.0     0.107448     0.750493     0.140908    Uiso  ? N
   N27        1.0     0.913892     0.852966     0.889227    Uiso  ? N
   N28        1.0     0.777392     0.761489     0.587094    Uiso  ? N
   N29        1.0     0.535084     0.882509     0.352549    Uiso  ? N
   N30        1.0     0.444590     0.755146     0.138550    Uiso  ? N
   N31        1.0     0.223128     0.873067     0.868746    Uiso  ? N
   N32        1.0     0.111501     0.758352     0.634364    Uiso  ? N
   N33        1.0     0.906807     0.875125     0.388978    Uiso  ? N
   N34        1.0     0.795017     0.755904     0.141283    Uiso  ? N
   N35        1.0     0.540994     0.885212     0.819766    Uiso  ? N
   N36        1.0     0.441268     0.756558     0.626161    Uiso  ? N
