
#======================================================================
# CRYSTAL DATA
#----------------------------------------------------------------------
data_VESTA_phase_1

_chemical_name_common                  'Mg   Al   Hf   N                      '
_cell_length_a                         9.773478
_cell_length_b                         9.782330
_cell_length_c                         10.111186
_cell_angle_alpha                      90.114677
_cell_angle_beta                       89.996010
_cell_angle_gamma                      60.066074
_cell_volume                           837.744749
_space_group_name_H-M_alt              'P 1'
_space_group_IT_number                 1

loop_
_space_group_symop_operation_xyz
   'x, y, z'

loop_
   _atom_site_label
   _atom_site_occupancy
   _atom_site_fract_x
   _atom_site_fract_y
   _atom_site_fract_z
   _atom_site_adp_type
   _atom_site_U_iso_or_equiv
   _atom_site_type_symbol
   Mg1        1.0     0.120474     0.089717     0.388937    Uiso  ? Mg
   Mg2        1.0     0.557067     0.542097     0.140431    Uiso  ? Mg
   Mg3        1.0     0.230349     0.869644     0.135532    Uiso  ? Mg
   Mg4        1.0     0.766945     0.759806     0.904347    Uiso  ? Mg
   Mg5        1.0     0.543444     0.875012     0.137396    Uiso  ? Mg
   Al1        1.0     0.222052     0.206003     0.143995    Uiso  ? Al
   Al2        1.0     0.897840     0.208356     0.644127    Uiso  ? Al
   Al3        1.0     0.429833     0.095764     0.389176    Uiso  ? Al
   Al4        1.0     0.536329     0.214069     0.145879    Uiso  ? Al
   Al5        1.0     0.117744     0.089611     0.892564    Uiso  ? Al
   Al6        1.0     0.216257     0.200464     0.639716    Uiso  ? Al
   Al7        1.0     0.899738     0.216887     0.140533    Uiso  ? Al
   Al8        1.0     0.438258     0.088707     0.896586    Uiso  ? Al
   Al9        1.0     0.118971     0.419914     0.394172    Uiso  ? Al
   Al10       1.0     0.224169     0.534884     0.141814    Uiso  ? Al
   Al11       1.0     0.773111     0.433210     0.892377    Uiso  ? Al
   Al12       1.0     0.884645     0.539412     0.639561    Uiso  ? Al
   Al13       1.0     0.438272     0.442299     0.388224    Uiso  ? Al
   Al14       1.0     0.218206     0.549183     0.636722    Uiso  ? Al
   Al15       1.0     0.775382     0.427764     0.395752    Uiso  ? Al
   Al16       1.0     0.893443     0.528491     0.144217    Uiso  ? Al
   Al17       1.0     0.442194     0.439788     0.899202    Uiso  ? Al
   Al18       1.0     0.554981     0.544545     0.640944    Uiso  ? Al
   Al19       1.0     0.127902     0.751837     0.362977    Uiso  ? Al
   Al20       1.0     0.895312     0.863694     0.644046    Uiso  ? Al
   Al21       1.0     0.439442     0.758643     0.397438    Uiso  ? Al
   Al22       1.0     0.119046     0.763203     0.876164    Uiso  ? Al
   Al23       1.0     0.220297     0.875445     0.638245    Uiso  ? Al
   Al24       1.0     0.902075     0.855293     0.139249    Uiso  ? Al
   Al25       1.0     0.442919     0.764123     0.890118    Uiso  ? Al
   Al26       1.0     0.550352     0.870027     0.643728    Uiso  ? Al
   Hf1        1.0     0.776998     0.096407     0.901118    Uiso  ? Hf
   Hf2        1.0     0.783224     0.098107     0.372431    Uiso  ? Hf
   Hf3        1.0     0.545760     0.211193     0.631043    Uiso  ? Hf
   Hf4        1.0     0.110978     0.429142     0.885230    Uiso  ? Hf
   Hf5        1.0     0.774759     0.755560     0.370270    Uiso  ? Hf
   N1         1.0     0.226335     0.214662     0.330568    Uiso  ? N
   N2         1.0     0.107429     0.109168     0.079213    Uiso  ? N
   N3         1.0     0.894093     0.211089     0.834280    Uiso  ? N
   N4         1.0     0.789797     0.089879     0.588239    Uiso  ? N
   N5         1.0     0.537224     0.215729     0.344405    Uiso  ? N
   N6         1.0     0.434404     0.110087     0.081605    Uiso  ? N
   N7         1.0     0.227949     0.193619     0.829001    Uiso  ? N
   N8         1.0     0.108670     0.095611     0.594067    Uiso  ? N
   N9         1.0     0.887275     0.223293     0.326774    Uiso  ? N
   N10        1.0     0.776203     0.093271     0.112061    Uiso  ? N
   N11        1.0     0.539286     0.214592     0.837344    Uiso  ? N
   N12        1.0     0.431525     0.089314     0.579945    Uiso  ? N
   N13        1.0     0.223331     0.533134     0.334982    Uiso  ? N
   N14        1.0     0.111229     0.427171     0.090500    Uiso  ? N
   N15        1.0     0.879657     0.534730     0.825790    Uiso  ? N
   N16        1.0     0.778150     0.425700     0.585847    Uiso  ? N
   N17        1.0     0.559549     0.538727     0.349507    Uiso  ? N
   N18        1.0     0.437745     0.420698     0.084319    Uiso  ? N
   N19        1.0     0.233503     0.544952     0.827907    Uiso  ? N
   N20        1.0     0.112618     0.427617     0.591238    Uiso  ? N
   N21        1.0     0.902119     0.514294     0.338087    Uiso  ? N
   N22        1.0     0.792529     0.422152     0.077190    Uiso  ? N
   N23        1.0     0.557978     0.533841     0.830369    Uiso  ? N
   N24        1.0     0.433520     0.446739     0.579092    Uiso  ? N
   N25        1.0     0.232783     0.857312     0.343728    Uiso  ? N
   N26        1.0     0.110965     0.748267     0.088835    Uiso  ? N
   N27        1.0     0.897629     0.868010     0.835898    Uiso  ? N
   N28        1.0     0.776552     0.762287     0.586261    Uiso  ? N
   N29        1.0     0.534813     0.881548     0.346553    Uiso  ? N
   N30        1.0     0.448288     0.756411     0.066989    Uiso  ? N
   N31        1.0     0.221991     0.876220     0.830997    Uiso  ? N
   N32        1.0     0.109069     0.763453     0.599207    Uiso  ? N
   N33        1.0     0.910598     0.860880     0.332299    Uiso  ? N
   N34        1.0     0.789854     0.749512     0.119900    Uiso  ? N
   N35        1.0     0.541955     0.883118     0.829237    Uiso  ? N
   N36        1.0     0.444343     0.760518     0.589835    Uiso  ? N
