
#======================================================================
# CRYSTAL DATA
#----------------------------------------------------------------------
data_VESTA_phase_1

_chemical_name_common                  'Mg   Al   Hf   N                      '
_cell_length_a                         9.772299
_cell_length_b                         9.800073
_cell_length_c                         10.257239
_cell_angle_alpha                      89.857788
_cell_angle_beta                       89.642456
_cell_angle_gamma                      60.195980
_cell_volume                           852.379235
_space_group_name_H-M_alt              'P 1'
_space_group_IT_number                 1

loop_
_space_group_symop_operation_xyz
   'x, y, z'

loop_
   _atom_site_label
   _atom_site_occupancy
   _atom_site_fract_x
   _atom_site_fract_y
   _atom_site_fract_z
   _atom_site_adp_type
   _atom_site_U_iso_or_equiv
   _atom_site_type_symbol
   Mg1        1.0     0.111045     0.092734     0.375995    Uiso  ? Mg
   Mg2        1.0     0.554069     0.544191     0.070281    Uiso  ? Mg
   Mg3        1.0     0.225794     0.868325     0.076905    Uiso  ? Mg
   Mg4        1.0     0.765477     0.755475     0.895299    Uiso  ? Mg
   Mg5        1.0     0.545519     0.884135     0.131132    Uiso  ? Mg
   Al1        1.0     0.223343     0.211139     0.137761    Uiso  ? Al
   Al2        1.0     0.902075     0.201608     0.639675    Uiso  ? Al
   Al3        1.0     0.427716     0.095401     0.391670    Uiso  ? Al
   Al4        1.0     0.532670     0.224968     0.058822    Uiso  ? Al
   Al5        1.0     0.119033     0.093093     0.889039    Uiso  ? Al
   Al6        1.0     0.215606     0.195104     0.635149    Uiso  ? Al
   Al7        1.0     0.900082     0.215374     0.119201    Uiso  ? Al
   Al8        1.0     0.434560     0.087423     0.883585    Uiso  ? Al
   Al9        1.0     0.116421     0.415995     0.392818    Uiso  ? Al
   Al10       1.0     0.228241     0.545437     0.077806    Uiso  ? Al
   Al11       1.0     0.766294     0.436435     0.821179    Uiso  ? Al
   Al12       1.0     0.885464     0.540237     0.633030    Uiso  ? Al
   Al13       1.0     0.435871     0.434147     0.321281    Uiso  ? Al
   Al14       1.0     0.219283     0.548554     0.570677    Uiso  ? Al
   Al15       1.0     0.767243     0.428703     0.309229    Uiso  ? Al
   Al16       1.0     0.902164     0.533325     0.138892    Uiso  ? Al
   Al17       1.0     0.441054     0.449651     0.818031    Uiso  ? Al
   Al18       1.0     0.556670     0.545298     0.565378    Uiso  ? Al
   Al19       1.0     0.124297     0.752671     0.324056    Uiso  ? Al
   Al20       1.0     0.900753     0.865195     0.576720    Uiso  ? Al
   Al21       1.0     0.435148     0.758033     0.315099    Uiso  ? Al
   Al22       1.0     0.122534     0.763278     0.819924    Uiso  ? Al
   Al23       1.0     0.227686     0.865434     0.570372    Uiso  ? Al
   Al24       1.0     0.910390     0.848302     0.072668    Uiso  ? Al
   Al25       1.0     0.438220     0.762964     0.818174    Uiso  ? Al
   Al26       1.0     0.556494     0.868628     0.635549    Uiso  ? Al
   Hf1        1.0     0.786338     0.086515     0.856436    Uiso  ? Hf
   Hf2        1.0     0.764925     0.091782     0.302273    Uiso  ? Hf
   Hf3        1.0     0.551711     0.209590     0.597796    Uiso  ? Hf
   Hf4        1.0     0.113134     0.428808     0.871549    Uiso  ? Hf
   Hf5        1.0     0.776673     0.754516     0.361748    Uiso  ? Hf
   N1         1.0     0.228476     0.214543     0.323265    Uiso  ? N
   N2         1.0     0.108938     0.115240     0.073635    Uiso  ? N
   N3         1.0     0.902185     0.212927     0.835476    Uiso  ? N
   N4         1.0     0.794076     0.078132     0.638878    Uiso  ? N
   N5         1.0     0.541770     0.217042     0.388885    Uiso  ? N
   N6         1.0     0.429524     0.111552     0.066167    Uiso  ? N
   N7         1.0     0.227798     0.192138     0.819579    Uiso  ? N
   N8         1.0     0.108193     0.092446     0.583720    Uiso  ? N
   N9         1.0     0.880572     0.208693     0.313736    Uiso  ? N
   N10        1.0     0.770761     0.097774     0.088810    Uiso  ? N
   N11        1.0     0.534692     0.223793     0.855887    Uiso  ? N
   N12        1.0     0.430559     0.086153     0.581098    Uiso  ? N
   N13        1.0     0.221713     0.538587     0.384596    Uiso  ? N
   N14        1.0     0.112663     0.429970     0.076926    Uiso  ? N
   N15        1.0     0.882272     0.538985     0.820484    Uiso  ? N
   N16        1.0     0.772007     0.424586     0.622597    Uiso  ? N
   N17        1.0     0.557064     0.534754     0.377976    Uiso  ? N
   N18        1.0     0.437286     0.419960     0.136784    Uiso  ? N
   N19        1.0     0.236279     0.553959     0.883990    Uiso  ? N
   N20        1.0     0.111794     0.422278     0.590607    Uiso  ? N
   N21        1.0     0.905278     0.512538     0.333862    Uiso  ? N
   N22        1.0     0.786635     0.431058     0.118657    Uiso  ? N
   N23        1.0     0.555304     0.544519     0.867426    Uiso  ? N
   N24        1.0     0.431620     0.450895     0.630759    Uiso  ? N
   N25        1.0     0.232540     0.848617     0.386692    Uiso  ? N
   N26        1.0     0.109317     0.751062     0.142119    Uiso  ? N
   N27        1.0     0.916394     0.849151     0.888982    Uiso  ? N
   N28        1.0     0.777896     0.757273     0.578899    Uiso  ? N
   N29        1.0     0.538198     0.885723     0.345636    Uiso  ? N
   N30        1.0     0.441554     0.757751     0.138383    Uiso  ? N
   N31        1.0     0.223212     0.874484     0.865866    Uiso  ? N
   N32        1.0     0.111648     0.758128     0.633171    Uiso  ? N
   N33        1.0     0.907297     0.872546     0.387115    Uiso  ? N
   N34        1.0     0.792118     0.755583     0.122503    Uiso  ? N
   N35        1.0     0.546007     0.882823     0.823630    Uiso  ? N
   N36        1.0     0.444725     0.756248     0.626218    Uiso  ? N
