
#======================================================================
# CRYSTAL DATA
#----------------------------------------------------------------------
data_VESTA_phase_1

_chemical_name_common                  'Mg   Al   Hf   N                      '
_cell_length_a                         9.754088
_cell_length_b                         9.781685
_cell_length_c                         10.323154
_cell_angle_alpha                      89.872375
_cell_angle_beta                       89.675079
_cell_angle_gamma                      60.172298
_cell_volume                           854.452118
_space_group_name_H-M_alt              'P 1'
_space_group_IT_number                 1

loop_
_space_group_symop_operation_xyz
   'x, y, z'

loop_
   _atom_site_label
   _atom_site_occupancy
   _atom_site_fract_x
   _atom_site_fract_y
   _atom_site_fract_z
   _atom_site_adp_type
   _atom_site_U_iso_or_equiv
   _atom_site_type_symbol
   Mg1        1.0     0.110837     0.092654     0.377161    Uiso  ? Mg
   Mg2        1.0     0.555486     0.544168     0.068758    Uiso  ? Mg
   Mg3        1.0     0.225880     0.868699     0.075963    Uiso  ? Mg
   Mg4        1.0     0.764871     0.754902     0.896104    Uiso  ? Mg
   Mg5        1.0     0.545198     0.884299     0.132613    Uiso  ? Mg
   Al1        1.0     0.223327     0.210963     0.137999    Uiso  ? Al
   Al2        1.0     0.902844     0.200133     0.639941    Uiso  ? Al
   Al3        1.0     0.427340     0.095001     0.392143    Uiso  ? Al
   Al4        1.0     0.532822     0.225078     0.058377    Uiso  ? Al
   Al5        1.0     0.118200     0.093997     0.888801    Uiso  ? Al
   Al6        1.0     0.215549     0.195711     0.635600    Uiso  ? Al
   Al7        1.0     0.899872     0.215737     0.120433    Uiso  ? Al
   Al8        1.0     0.434456     0.087692     0.883878    Uiso  ? Al
   Al9        1.0     0.117083     0.415476     0.392649    Uiso  ? Al
   Al10       1.0     0.228637     0.546089     0.078352    Uiso  ? Al
   Al11       1.0     0.765315     0.437284     0.815370    Uiso  ? Al
   Al12       1.0     0.887164     0.540154     0.632006    Uiso  ? Al
   Al13       1.0     0.436322     0.434082     0.320814    Uiso  ? Al
   Al14       1.0     0.219539     0.548143     0.570004    Uiso  ? Al
   Al15       1.0     0.767176     0.428311     0.309813    Uiso  ? Al
   Al16       1.0     0.901744     0.534220     0.141337    Uiso  ? Al
   Al17       1.0     0.440802     0.449198     0.817849    Uiso  ? Al
   Al18       1.0     0.556307     0.545357     0.564926    Uiso  ? Al
   Al19       1.0     0.124316     0.752837     0.323872    Uiso  ? Al
   Al20       1.0     0.901025     0.865296     0.576447    Uiso  ? Al
   Al21       1.0     0.435080     0.757471     0.314961    Uiso  ? Al
   Al22       1.0     0.122119     0.763069     0.819824    Uiso  ? Al
   Al23       1.0     0.227995     0.864960     0.569915    Uiso  ? Al
   Al24       1.0     0.910239     0.848794     0.072363    Uiso  ? Al
   Al25       1.0     0.437611     0.763339     0.817039    Uiso  ? Al
   Al26       1.0     0.556682     0.868782     0.636202    Uiso  ? Al
   Hf1        1.0     0.786174     0.086773     0.856446    Uiso  ? Hf
   Hf2        1.0     0.764690     0.090652     0.300642    Uiso  ? Hf
   Hf3        1.0     0.552430     0.209275     0.596046    Uiso  ? Hf
   Hf4        1.0     0.111990     0.428980     0.874628    Uiso  ? Hf
   Hf5        1.0     0.776479     0.754577     0.363298    Uiso  ? Hf
   N1         1.0     0.228553     0.213977     0.322419    Uiso  ? N
   N2         1.0     0.108136     0.116416     0.072180    Uiso  ? N
   N3         1.0     0.901941     0.213531     0.833419    Uiso  ? N
   N4         1.0     0.794166     0.077364     0.640093    Uiso  ? N
   N5         1.0     0.542333     0.216518     0.388941    Uiso  ? N
   N6         1.0     0.429241     0.111398     0.065543    Uiso  ? N
   N7         1.0     0.227475     0.192971     0.819073    Uiso  ? N
   N8         1.0     0.108758     0.092200     0.583317    Uiso  ? N
   N9         1.0     0.880758     0.207397     0.313377    Uiso  ? N
   N10        1.0     0.771144     0.098035     0.088303    Uiso  ? N
   N11        1.0     0.534559     0.224028     0.857414    Uiso  ? N
   N12        1.0     0.430595     0.086103     0.580588    Uiso  ? N
   N13        1.0     0.222315     0.538532     0.384700    Uiso  ? N
   N14        1.0     0.112067     0.430871     0.078361    Uiso  ? N
   N15        1.0     0.882466     0.539362     0.818197    Uiso  ? N
   N16        1.0     0.772213     0.424357     0.621808    Uiso  ? N
   N17        1.0     0.557190     0.534444     0.378926    Uiso  ? N
   N18        1.0     0.438002     0.419830     0.137285    Uiso  ? N
   N19        1.0     0.236087     0.553703     0.884978    Uiso  ? N
   N20        1.0     0.112396     0.421660     0.588299    Uiso  ? N
   N21        1.0     0.905306     0.512573     0.334922    Uiso  ? N
   N22        1.0     0.786306     0.431718     0.121877    Uiso  ? N
   N23        1.0     0.555531     0.544599     0.866578    Uiso  ? N
   N24        1.0     0.431738     0.450436     0.631390    Uiso  ? N
   N25        1.0     0.232865     0.848152     0.387463    Uiso  ? N
   N26        1.0     0.109072     0.751974     0.142836    Uiso  ? N
   N27        1.0     0.916195     0.848850     0.889877    Uiso  ? N
   N28        1.0     0.777713     0.757559     0.578311    Uiso  ? N
   N29        1.0     0.537880     0.885530     0.345373    Uiso  ? N
   N30        1.0     0.441268     0.757147     0.139323    Uiso  ? N
   N31        1.0     0.222809     0.874704     0.866080    Uiso  ? N
   N32        1.0     0.111911     0.757661     0.633726    Uiso  ? N
   N33        1.0     0.907361     0.872858     0.387974    Uiso  ? N
   N34        1.0     0.791840     0.756418     0.123363    Uiso  ? N
   N35        1.0     0.545830     0.883161     0.822856    Uiso  ? N
   N36        1.0     0.444741     0.756187     0.626470    Uiso  ? N
