
#======================================================================
# CRYSTAL DATA
#----------------------------------------------------------------------
data_VESTA_phase_1

_chemical_name_common                  'Mg   Al   Hf   N                      '
_cell_length_a                         9.760024
_cell_length_b                         9.773369
_cell_length_c                         10.271790
_cell_angle_alpha                      89.667877
_cell_angle_beta                       89.474518
_cell_angle_gamma                      60.258614
_cell_volume                           850.705176
_space_group_name_H-M_alt              'P 1'
_space_group_IT_number                 1

loop_
_space_group_symop_operation_xyz
   'x, y, z'

loop_
   _atom_site_label
   _atom_site_occupancy
   _atom_site_fract_x
   _atom_site_fract_y
   _atom_site_fract_z
   _atom_site_adp_type
   _atom_site_U_iso_or_equiv
   _atom_site_type_symbol
   Mg1        1.0     0.118679     0.088809     0.368728    Uiso  ? Mg
   Mg2        1.0     0.557517     0.541911     0.070701    Uiso  ? Mg
   Mg3        1.0     0.226246     0.866976     0.077650    Uiso  ? Mg
   Mg4        1.0     0.764998     0.754209     0.896574    Uiso  ? Mg
   Mg5        1.0     0.544964     0.884470     0.131405    Uiso  ? Mg
   Al1        1.0     0.223692     0.210720     0.138048    Uiso  ? Al
   Al2        1.0     0.892293     0.206830     0.570092    Uiso  ? Al
   Al3        1.0     0.428655     0.094840     0.391055    Uiso  ? Al
   Al4        1.0     0.536898     0.222611     0.060723    Uiso  ? Al
   Al5        1.0     0.122631     0.090469     0.888817    Uiso  ? Al
   Al6        1.0     0.214072     0.195282     0.635982    Uiso  ? Al
   Al7        1.0     0.893136     0.223554     0.066465    Uiso  ? Al
   Al8        1.0     0.435643     0.087871     0.884027    Uiso  ? Al
   Al9        1.0     0.117352     0.416057     0.393376    Uiso  ? Al
   Al10       1.0     0.227922     0.544805     0.077932    Uiso  ? Al
   Al11       1.0     0.767126     0.431676     0.811041    Uiso  ? Al
   Al12       1.0     0.886403     0.541373     0.631438    Uiso  ? Al
   Al13       1.0     0.436433     0.434282     0.320309    Uiso  ? Al
   Al14       1.0     0.219079     0.548517     0.570735    Uiso  ? Al
   Al15       1.0     0.771210     0.423456     0.317713    Uiso  ? Al
   Al16       1.0     0.901565     0.531102     0.144241    Uiso  ? Al
   Al17       1.0     0.441340     0.448408     0.818831    Uiso  ? Al
   Al18       1.0     0.554087     0.546991     0.565357    Uiso  ? Al
   Al19       1.0     0.124749     0.751883     0.323240    Uiso  ? Al
   Al20       1.0     0.901209     0.865071     0.575544    Uiso  ? Al
   Al21       1.0     0.436331     0.755934     0.314552    Uiso  ? Al
   Al22       1.0     0.121627     0.762611     0.820412    Uiso  ? Al
   Al23       1.0     0.227377     0.866299     0.570361    Uiso  ? Al
   Al24       1.0     0.908230     0.851428     0.074043    Uiso  ? Al
   Al25       1.0     0.438857     0.761884     0.818517    Uiso  ? Al
   Al26       1.0     0.556221     0.869234     0.636066    Uiso  ? Al
   Hf1        1.0     0.788422     0.086781     0.845946    Uiso  ? Hf
   Hf2        1.0     0.771664     0.098515     0.306537    Uiso  ? Hf
   Hf3        1.0     0.550586     0.210296     0.595320    Uiso  ? Hf
   Hf4        1.0     0.110220     0.429197     0.873199    Uiso  ? Hf
   Hf5        1.0     0.775364     0.757106     0.360484    Uiso  ? Hf
   N1         1.0     0.229907     0.215478     0.322720    Uiso  ? N
   N2         1.0     0.110652     0.112613     0.078667    Uiso  ? N
   N3         1.0     0.894130     0.221442     0.875646    Uiso  ? N
   N4         1.0     0.795345     0.080942     0.635273    Uiso  ? N
   N5         1.0     0.543779     0.214412     0.386725    Uiso  ? N
   N6         1.0     0.430147     0.111889     0.065967    Uiso  ? N
   N7         1.0     0.227922     0.192666     0.820193    Uiso  ? N
   N8         1.0     0.109531     0.091083     0.586035    Uiso  ? N
   N9         1.0     0.872290     0.216117     0.380221    Uiso  ? N
   N10        1.0     0.773095     0.099795     0.094908    Uiso  ? N
   N11        1.0     0.537798     0.221686     0.855545    Uiso  ? N
   N12        1.0     0.429894     0.086826     0.580920    Uiso  ? N
   N13        1.0     0.222857     0.538251     0.384853    Uiso  ? N
   N14        1.0     0.110239     0.429991     0.078106    Uiso  ? N
   N15        1.0     0.880702     0.538634     0.817862    Uiso  ? N
   N16        1.0     0.772077     0.423335     0.621650    Uiso  ? N
   N17        1.0     0.556231     0.535257     0.379107    Uiso  ? N
   N18        1.0     0.437324     0.419745     0.136219    Uiso  ? N
   N19        1.0     0.235644     0.552640     0.884239    Uiso  ? N
   N20        1.0     0.111922     0.422073     0.589825    Uiso  ? N
   N21        1.0     0.905441     0.514118     0.337442    Uiso  ? N
   N22        1.0     0.788185     0.422305     0.133137    Uiso  ? N
   N23        1.0     0.557586     0.542535     0.866527    Uiso  ? N
   N24        1.0     0.430753     0.450760     0.631358    Uiso  ? N
   N25        1.0     0.233142     0.847360     0.386335    Uiso  ? N
   N26        1.0     0.108599     0.750414     0.142059    Uiso  ? N
   N27        1.0     0.914608     0.850954     0.890010    Uiso  ? N
   N28        1.0     0.777135     0.759127     0.578036    Uiso  ? N
   N29        1.0     0.536680     0.885091     0.345499    Uiso  ? N
   N30        1.0     0.442734     0.755913     0.137795    Uiso  ? N
   N31        1.0     0.223327     0.872971     0.866474    Uiso  ? N
   N32        1.0     0.111183     0.757980     0.633518    Uiso  ? N
   N33        1.0     0.906830     0.874747     0.386083    Uiso  ? N
   N34        1.0     0.791966     0.754025     0.123199    Uiso  ? N
   N35        1.0     0.545751     0.882953     0.823761    Uiso  ? N
   N36        1.0     0.444158     0.756792     0.626840    Uiso  ? N
