
#======================================================================
# CRYSTAL DATA
#----------------------------------------------------------------------
data_VESTA_phase_1

_chemical_name_common                  'Mg   Al   Hf   N                      '
_cell_length_a                         9.797628
_cell_length_b                         9.811761
_cell_length_c                         10.174412
_cell_angle_alpha                      89.907288
_cell_angle_beta                       89.514900
_cell_angle_gamma                      59.963276
_cell_volume                           846.699835
_space_group_name_H-M_alt              'P 1'
_space_group_IT_number                 1

loop_
_space_group_symop_operation_xyz
   'x, y, z'

loop_
   _atom_site_label
   _atom_site_occupancy
   _atom_site_fract_x
   _atom_site_fract_y
   _atom_site_fract_z
   _atom_site_adp_type
   _atom_site_U_iso_or_equiv
   _atom_site_type_symbol
   Mg1        1.0     0.118365     0.088208     0.351382    Uiso  ? Mg
   Mg2        1.0     0.557500     0.538869     0.074277    Uiso  ? Mg
   Mg3        1.0     0.227249     0.863595     0.081294    Uiso  ? Mg
   Mg4        1.0     0.776873     0.761429     0.822165    Uiso  ? Mg
   Mg5        1.0     0.550379     0.876846     0.117913    Uiso  ? Mg
   Al1        1.0     0.222541     0.216189     0.135175    Uiso  ? Al
   Al2        1.0     0.893549     0.207069     0.569443    Uiso  ? Al
   Al3        1.0     0.429984     0.093518     0.389515    Uiso  ? Al
   Al4        1.0     0.537020     0.221036     0.063807    Uiso  ? Al
   Al5        1.0     0.122799     0.090519     0.894256    Uiso  ? Al
   Al6        1.0     0.214576     0.191998     0.638962    Uiso  ? Al
   Al7        1.0     0.893894     0.223756     0.072292    Uiso  ? Al
   Al8        1.0     0.436059     0.087661     0.884626    Uiso  ? Al
   Al9        1.0     0.121268     0.414824     0.392297    Uiso  ? Al
   Al10       1.0     0.225552     0.542500     0.075961    Uiso  ? Al
   Al11       1.0     0.769080     0.435517     0.818538    Uiso  ? Al
   Al12       1.0     0.884719     0.533087     0.579706    Uiso  ? Al
   Al13       1.0     0.437317     0.433486     0.322261    Uiso  ? Al
   Al14       1.0     0.219321     0.550731     0.575473    Uiso  ? Al
   Al15       1.0     0.775167     0.426175     0.321985    Uiso  ? Al
   Al16       1.0     0.884941     0.538856     0.072103    Uiso  ? Al
   Al17       1.0     0.441936     0.448942     0.820780    Uiso  ? Al
   Al18       1.0     0.553385     0.546554     0.569112    Uiso  ? Al
   Al19       1.0     0.123349     0.751176     0.323092    Uiso  ? Al
   Al20       1.0     0.900413     0.865737     0.577205    Uiso  ? Al
   Al21       1.0     0.438695     0.754820     0.316922    Uiso  ? Al
   Al22       1.0     0.123604     0.765296     0.821243    Uiso  ? Al
   Al23       1.0     0.224250     0.869565     0.568289    Uiso  ? Al
   Al24       1.0     0.905827     0.847215     0.071073    Uiso  ? Al
   Al25       1.0     0.438934     0.762253     0.820785    Uiso  ? Al
   Al26       1.0     0.548317     0.871763     0.629208    Uiso  ? Al
   Hf1        1.0     0.788451     0.091260     0.847534    Uiso  ? Hf
   Hf2        1.0     0.772532     0.097476     0.309728    Uiso  ? Hf
   Hf3        1.0     0.549174     0.209771     0.598225    Uiso  ? Hf
   Hf4        1.0     0.112220     0.431778     0.857598    Uiso  ? Hf
   Hf5        1.0     0.780310     0.752421     0.345236    Uiso  ? Hf
   N1         1.0     0.230674     0.216497     0.322383    Uiso  ? N
   N2         1.0     0.111112     0.110335     0.088790    Uiso  ? N
   N3         1.0     0.894875     0.222034     0.881339    Uiso  ? N
   N4         1.0     0.794635     0.084252     0.634427    Uiso  ? N
   N5         1.0     0.543720     0.213353     0.386721    Uiso  ? N
   N6         1.0     0.432919     0.109261     0.068315    Uiso  ? N
   N7         1.0     0.227385     0.190607     0.824862    Uiso  ? N
   N8         1.0     0.108686     0.091971     0.588283    Uiso  ? N
   N9         1.0     0.872306     0.216778     0.381027    Uiso  ? N
   N10        1.0     0.772425     0.099684     0.096824    Uiso  ? N
   N11        1.0     0.537301     0.221383     0.854380    Uiso  ? N
   N12        1.0     0.426967     0.089281     0.580715    Uiso  ? N
   N13        1.0     0.221712     0.537754     0.387847    Uiso  ? N
   N14        1.0     0.112989     0.428893     0.071872    Uiso  ? N
   N15        1.0     0.872323     0.537813     0.880081    Uiso  ? N
   N16        1.0     0.774892     0.425160     0.629501    Uiso  ? N
   N17        1.0     0.557309     0.533332     0.381233    Uiso  ? N
   N18        1.0     0.435867     0.419928     0.136715    Uiso  ? N
   N19        1.0     0.235567     0.555491     0.882321    Uiso  ? N
   N20        1.0     0.113922     0.424621     0.609040    Uiso  ? N
   N21        1.0     0.898639     0.512145     0.391072    Uiso  ? N
   N22        1.0     0.791795     0.425130     0.138722    Uiso  ? N
   N23        1.0     0.556837     0.542256     0.867890    Uiso  ? N
   N24        1.0     0.432215     0.450239     0.631672    Uiso  ? N
   N25        1.0     0.231266     0.848251     0.382868    Uiso  ? N
   N26        1.0     0.106630     0.749452     0.140425    Uiso  ? N
   N27        1.0     0.913567     0.853485     0.885853    Uiso  ? N
   N28        1.0     0.779678     0.759863     0.601409    Uiso  ? N
   N29        1.0     0.540531     0.879923     0.354099    Uiso  ? N
   N30        1.0     0.445365     0.754189     0.138773    Uiso  ? N
   N31        1.0     0.223713     0.874010     0.870333    Uiso  ? N
   N32        1.0     0.111230     0.761433     0.633302    Uiso  ? N
   N33        1.0     0.905127     0.871879     0.388158    Uiso  ? N
   N34        1.0     0.796850     0.749771     0.135869    Uiso  ? N
   N35        1.0     0.541339     0.884667     0.822033    Uiso  ? N
   N36        1.0     0.440457     0.757358     0.626276    Uiso  ? N
