
#======================================================================
# CRYSTAL DATA
#----------------------------------------------------------------------
data_VESTA_phase_1

_chemical_name_common                  'Mg   Al   Hf   N '
_cell_length_a                         9.787084
_cell_length_b                         9.804140
_cell_length_c                         10.154464
_cell_angle_alpha                      89.795853
_cell_angle_beta                       89.489243
_cell_angle_gamma                      59.938889
_cell_volume                           843.267132
_space_group_name_H-M_alt              'P 1'
_space_group_IT_number                 1

loop_
_space_group_symop_operation_xyz
   'x, y, z'

loop_
   _atom_site_label
   _atom_site_occupancy
   _atom_site_fract_x
   _atom_site_fract_y
   _atom_site_fract_z
   _atom_site_adp_type
   _atom_site_U_iso_or_equiv
   _atom_site_type_symbol
   Mg1        1.0     0.116251     0.088366     0.327821    Uiso  ? Mg
   Mg2        1.0     0.557230     0.538513     0.075631    Uiso  ? Mg
   Mg3        1.0     0.222893     0.873593     0.072631    Uiso  ? Mg
   Mg4        1.0     0.779143     0.755983     0.821908    Uiso  ? Mg
   Mg5        1.0     0.550240     0.875363     0.120007    Uiso  ? Mg
   Al1        1.0     0.226818     0.202406     0.136341    Uiso  ? Al
   Al2        1.0     0.893508     0.207588     0.574828    Uiso  ? Al
   Al3        1.0     0.429768     0.096309     0.390610    Uiso  ? Al
   Al4        1.0     0.535833     0.220494     0.064830    Uiso  ? Al
   Al5        1.0     0.115464     0.081786     0.820891    Uiso  ? Al
   Al6        1.0     0.216228     0.203772     0.635753    Uiso  ? Al
   Al7        1.0     0.904496     0.220231     0.067307    Uiso  ? Al
   Al8        1.0     0.435559     0.084263     0.884992    Uiso  ? Al
   Al9        1.0     0.115187     0.431016     0.315176    Uiso  ? Al
   Al10       1.0     0.226567     0.546222     0.080965    Uiso  ? Al
   Al11       1.0     0.770863     0.434956     0.819888    Uiso  ? Al
   Al12       1.0     0.894811     0.529080     0.573733    Uiso  ? Al
   Al13       1.0     0.438905     0.433889     0.323390    Uiso  ? Al
   Al14       1.0     0.214054     0.546178     0.570478    Uiso  ? Al
   Al15       1.0     0.777744     0.425488     0.323453    Uiso  ? Al
   Al16       1.0     0.881469     0.540505     0.079724    Uiso  ? Al
   Al17       1.0     0.440340     0.447461     0.821235    Uiso  ? Al
   Al18       1.0     0.554401     0.546277     0.569778    Uiso  ? Al
   Al19       1.0     0.122733     0.757487     0.323227    Uiso  ? Al
   Al20       1.0     0.900610     0.867024     0.578139    Uiso  ? Al
   Al21       1.0     0.435725     0.757909     0.317894    Uiso  ? Al
   Al22       1.0     0.122908     0.759065     0.821359    Uiso  ? Al
   Al23       1.0     0.225184     0.866555     0.572229    Uiso  ? Al
   Al24       1.0     0.904547     0.847997     0.072507    Uiso  ? Al
   Al25       1.0     0.441045     0.758866     0.820269    Uiso  ? Al
   Al26       1.0     0.549034     0.871125     0.628150    Uiso  ? Al
   Hf1        1.0     0.785562     0.089486     0.853522    Uiso  ? Hf
   Hf2        1.0     0.776211     0.102046     0.308356    Uiso  ? Hf
   Hf3        1.0     0.551677     0.209802     0.599305    Uiso  ? Hf
   Hf4        1.0     0.112462     0.428999     0.855430    Uiso  ? Hf
   Hf5        1.0     0.777041     0.758256     0.349693    Uiso  ? Hf
   N1         1.0     0.232706     0.215766     0.325909    Uiso  ? N
   N2         1.0     0.106165     0.106055     0.120148    Uiso  ? N
   N3         1.0     0.899086     0.217386     0.877535    Uiso  ? N
   N4         1.0     0.796171     0.083643     0.638900    Uiso  ? N
   N5         1.0     0.547816     0.212734     0.387074    Uiso  ? N
   N6         1.0     0.433335     0.107018     0.068037    Uiso  ? N
   N7         1.0     0.228321     0.189133     0.827386    Uiso  ? N
   N8         1.0     0.106882     0.090469     0.625081    Uiso  ? N
   N9         1.0     0.876996     0.217205     0.389888    Uiso  ? N
   N10        1.0     0.771142     0.098557     0.093463    Uiso  ? N
   N11        1.0     0.534838     0.220631     0.854041    Uiso  ? N
   N12        1.0     0.427652     0.090858     0.581585    Uiso  ? N
   N13        1.0     0.218650     0.539761     0.381595    Uiso  ? N
   N14        1.0     0.109898     0.434353     0.109502    Uiso  ? N
   N15        1.0     0.875009     0.533870     0.890484    Uiso  ? N
   N16        1.0     0.778146     0.427619     0.630093    Uiso  ? N
   N17        1.0     0.557983     0.534412     0.381777    Uiso  ? N
   N18        1.0     0.437407     0.418869     0.138070    Uiso  ? N
   N19        1.0     0.235184     0.550948     0.889591    Uiso  ? N
   N20        1.0     0.109015     0.433843     0.636164    Uiso  ? N
   N21        1.0     0.903919     0.513838     0.384640    Uiso  ? N
   N22        1.0     0.790977     0.421202     0.139088    Uiso  ? N
   N23        1.0     0.557551     0.539297     0.867741    Uiso  ? N
   N24        1.0     0.429438     0.450968     0.630758    Uiso  ? N
   N25        1.0     0.228568     0.855068     0.388565    Uiso  ? N
   N26        1.0     0.106124     0.754785     0.140297    Uiso  ? N
   N27        1.0     0.913207     0.850034     0.885949    Uiso  ? N
   N28        1.0     0.780742     0.758880     0.598490    Uiso  ? N
   N29        1.0     0.537327     0.881803     0.356112    Uiso  ? N
   N30        1.0     0.440773     0.755738     0.138586    Uiso  ? N
   N31        1.0     0.223305     0.870191     0.864685    Uiso  ? N
   N32        1.0     0.111946     0.757509     0.632623    Uiso  ? N
   N33        1.0     0.903735     0.877506     0.388406    Uiso  ? N
   N34        1.0     0.794969     0.752056     0.139725    Uiso  ? N
   N35        1.0     0.543209     0.881478     0.821619    Uiso  ? N
   N36        1.0     0.441680     0.756525     0.626524    Uiso  ? N
