
#======================================================================
# CRYSTAL DATA
#----------------------------------------------------------------------
data_VESTA_phase_1

_chemical_name_common                  'Mg   Al   Hf   N                      '
_cell_length_a                         9.798896
_cell_length_b                         9.823749
_cell_length_c                         10.178238
_cell_angle_alpha                      89.707893
_cell_angle_beta                       89.501518
_cell_angle_gamma                      60.004883
_cell_volume                           848.520575
_space_group_name_H-M_alt              'P 1'
_space_group_IT_number                 1

loop_
_space_group_symop_operation_xyz
   'x, y, z'

loop_
   _atom_site_label
   _atom_site_occupancy
   _atom_site_fract_x
   _atom_site_fract_y
   _atom_site_fract_z
   _atom_site_adp_type
   _atom_site_U_iso_or_equiv
   _atom_site_type_symbol
   Mg1        1.0     0.118727     0.088725     0.359730    Uiso  ? Mg
   Mg2        1.0     0.558885     0.539751     0.073881    Uiso  ? Mg
   Mg3        1.0     0.227202     0.864599     0.082049    Uiso  ? Mg
   Mg4        1.0     0.776176     0.765333     0.822919    Uiso  ? Mg
   Mg5        1.0     0.551799     0.877803     0.124259    Uiso  ? Mg
   Al1        1.0     0.223328     0.213426     0.136961    Uiso  ? Al
   Al2        1.0     0.891986     0.205786     0.566542    Uiso  ? Al
   Al3        1.0     0.428300     0.095022     0.389952    Uiso  ? Al
   Al4        1.0     0.536497     0.221721     0.062204    Uiso  ? Al
   Al5        1.0     0.123321     0.090418     0.894739    Uiso  ? Al
   Al6        1.0     0.215013     0.191208     0.637578    Uiso  ? Al
   Al7        1.0     0.894379     0.224767     0.072386    Uiso  ? Al
   Al8        1.0     0.436284     0.086663     0.884512    Uiso  ? Al
   Al9        1.0     0.119100     0.414626     0.400079    Uiso  ? Al
   Al10       1.0     0.226093     0.543806     0.074631    Uiso  ? Al
   Al11       1.0     0.767929     0.432246     0.810259    Uiso  ? Al
   Al12       1.0     0.886386     0.533180     0.608326    Uiso  ? Al
   Al13       1.0     0.435114     0.433657     0.321179    Uiso  ? Al
   Al14       1.0     0.220179     0.550085     0.573984    Uiso  ? Al
   Al15       1.0     0.772575     0.425991     0.326658    Uiso  ? Al
   Al16       1.0     0.895737     0.536503     0.116208    Uiso  ? Al
   Al17       1.0     0.442372     0.449152     0.820318    Uiso  ? Al
   Al18       1.0     0.551611     0.546099     0.566474    Uiso  ? Al
   Al19       1.0     0.122870     0.750738     0.322752    Uiso  ? Al
   Al20       1.0     0.901436     0.868279     0.576918    Uiso  ? Al
   Al21       1.0     0.437154     0.754967     0.315533    Uiso  ? Al
   Al22       1.0     0.123573     0.764942     0.821602    Uiso  ? Al
   Al23       1.0     0.225116     0.867902     0.567858    Uiso  ? Al
   Al24       1.0     0.906036     0.847166     0.072604    Uiso  ? Al
   Al25       1.0     0.439514     0.761879     0.821016    Uiso  ? Al
   Al26       1.0     0.547065     0.872806     0.629056    Uiso  ? Al
   Hf1        1.0     0.789119     0.092019     0.848526    Uiso  ? Hf
   Hf2        1.0     0.771374     0.096741     0.308071    Uiso  ? Hf
   Hf3        1.0     0.549300     0.210017     0.598025    Uiso  ? Hf
   Hf4        1.0     0.112769     0.429598     0.858394    Uiso  ? Hf
   Hf5        1.0     0.776641     0.754875     0.361251    Uiso  ? Hf
   N1         1.0     0.228792     0.218499     0.322935    Uiso  ? N
   N2         1.0     0.111373     0.110797     0.087058    Uiso  ? N
   N3         1.0     0.894829     0.224199     0.881735    Uiso  ? N
   N4         1.0     0.795009     0.083923     0.635573    Uiso  ? N
   N5         1.0     0.543109     0.213540     0.386614    Uiso  ? N
   N6         1.0     0.432377     0.109709     0.068232    Uiso  ? N
   N7         1.0     0.228146     0.189198     0.823350    Uiso  ? N
   N8         1.0     0.108821     0.091863     0.583613    Uiso  ? N
   N9         1.0     0.871637     0.214813     0.378477    Uiso  ? N
   N10        1.0     0.772115     0.100746     0.095455    Uiso  ? N
   N11        1.0     0.537922     0.221211     0.854669    Uiso  ? N
   N12        1.0     0.427346     0.089191     0.580859    Uiso  ? N
   N13        1.0     0.220844     0.538187     0.386679    Uiso  ? N
   N14        1.0     0.109250     0.429908     0.071305    Uiso  ? N
   N15        1.0     0.881812     0.534709     0.816838    Uiso  ? N
   N16        1.0     0.769602     0.420068     0.621588    Uiso  ? N
   N17        1.0     0.553927     0.534172     0.379210    Uiso  ? N
   N18        1.0     0.435475     0.419914     0.135339    Uiso  ? N
   N19        1.0     0.235743     0.554691     0.881902    Uiso  ? N
   N20        1.0     0.120093     0.419622     0.601377    Uiso  ? N
   N21        1.0     0.897492     0.512699     0.386570    Uiso  ? N
   N22        1.0     0.792207     0.424953     0.140606    Uiso  ? N
   N23        1.0     0.558861     0.541501     0.867941    Uiso  ? N
   N24        1.0     0.431664     0.450204     0.631762    Uiso  ? N
   N25        1.0     0.231085     0.847412     0.382427    Uiso  ? N
   N26        1.0     0.107528     0.748982     0.139691    Uiso  ? N
   N27        1.0     0.913395     0.854058     0.887475    Uiso  ? N
   N28        1.0     0.776505     0.765771     0.594373    Uiso  ? N
   N29        1.0     0.536375     0.881899     0.353843    Uiso  ? N
   N30        1.0     0.446061     0.754869     0.137298    Uiso  ? N
   N31        1.0     0.223540     0.874156     0.869953    Uiso  ? N
   N32        1.0     0.111594     0.760372     0.633830    Uiso  ? N
   N33        1.0     0.906441     0.873361     0.388376    Uiso  ? N
   N34        1.0     0.797608     0.751805     0.142829    Uiso  ? N
   N35        1.0     0.541772     0.884433     0.821577    Uiso  ? N
   N36        1.0     0.441062     0.756441     0.626315    Uiso  ? N
