
#======================================================================
# CRYSTAL DATA
#----------------------------------------------------------------------
data_VESTA_phase_1

_chemical_name_common                  'Mg   Al   Hf   N                      '
_cell_length_a                         9.779465
_cell_length_b                         9.803736
_cell_length_c                         10.211546
_cell_angle_alpha                      89.875931
_cell_angle_beta                       89.666756
_cell_angle_gamma                      60.199451
_cell_volume                           849.553344
_space_group_name_H-M_alt              'P 1'
_space_group_IT_number                 1

loop_
_space_group_symop_operation_xyz
   'x, y, z'

loop_
   _atom_site_label
   _atom_site_occupancy
   _atom_site_fract_x
   _atom_site_fract_y
   _atom_site_fract_z
   _atom_site_adp_type
   _atom_site_U_iso_or_equiv
   _atom_site_type_symbol
   Mg1        1.0     0.110231     0.093482     0.376267    Uiso  ? Mg
   Mg2        1.0     0.547768     0.545960     0.074800    Uiso  ? Mg
   Mg3        1.0     0.225489     0.868471     0.076871    Uiso  ? Mg
   Mg4        1.0     0.766349     0.756439     0.893153    Uiso  ? Mg
   Mg5        1.0     0.546122     0.884149     0.130067    Uiso  ? Mg
   Al1        1.0     0.223591     0.211109     0.137192    Uiso  ? Al
   Al2        1.0     0.899051     0.208785     0.640982    Uiso  ? Al
   Al3        1.0     0.427664     0.095712     0.391522    Uiso  ? Al
   Al4        1.0     0.532534     0.224785     0.058224    Uiso  ? Al
   Al5        1.0     0.120121     0.092242     0.888455    Uiso  ? Al
   Al6        1.0     0.215336     0.194836     0.634573    Uiso  ? Al
   Al7        1.0     0.901343     0.214448     0.118058    Uiso  ? Al
   Al8        1.0     0.434778     0.087152     0.883254    Uiso  ? Al
   Al9        1.0     0.115328     0.416120     0.393024    Uiso  ? Al
   Al10       1.0     0.227569     0.545172     0.077147    Uiso  ? Al
   Al11       1.0     0.774500     0.434137     0.874969    Uiso  ? Al
   Al12       1.0     0.880396     0.536775     0.635270    Uiso  ? Al
   Al13       1.0     0.434181     0.434178     0.321295    Uiso  ? Al
   Al14       1.0     0.218660     0.548600     0.571266    Uiso  ? Al
   Al15       1.0     0.768672     0.427251     0.326478    Uiso  ? Al
   Al16       1.0     0.902221     0.532521     0.135628    Uiso  ? Al
   Al17       1.0     0.442774     0.449852     0.817815    Uiso  ? Al
   Al18       1.0     0.558227     0.544514     0.565547    Uiso  ? Al
   Al19       1.0     0.123870     0.752965     0.324224    Uiso  ? Al
   Al20       1.0     0.900376     0.865105     0.577391    Uiso  ? Al
   Al21       1.0     0.433925     0.759564     0.315261    Uiso  ? Al
   Al22       1.0     0.123258     0.763314     0.819680    Uiso  ? Al
   Al23       1.0     0.226992     0.866198     0.571254    Uiso  ? Al
   Al24       1.0     0.910360     0.847994     0.072446    Uiso  ? Al
   Al25       1.0     0.439879     0.761593     0.818452    Uiso  ? Al
   Al26       1.0     0.556606     0.868244     0.634901    Uiso  ? Al
   Hf1        1.0     0.786690     0.086366     0.855185    Uiso  ? Hf
   Hf2        1.0     0.764400     0.092681     0.301983    Uiso  ? Hf
   Hf3        1.0     0.551796     0.209846     0.598563    Uiso  ? Hf
   Hf4        1.0     0.114765     0.429048     0.868416    Uiso  ? Hf
   Hf5        1.0     0.776784     0.754063     0.361358    Uiso  ? Hf
   N1         1.0     0.228095     0.214784     0.323655    Uiso  ? N
   N2         1.0     0.110275     0.113990     0.074003    Uiso  ? N
   N3         1.0     0.901857     0.214056     0.837069    Uiso  ? N
   N4         1.0     0.794189     0.078829     0.638674    Uiso  ? N
   N5         1.0     0.541703     0.217257     0.388252    Uiso  ? N
   N6         1.0     0.429879     0.111470     0.066497    Uiso  ? N
   N7         1.0     0.228266     0.191863     0.819717    Uiso  ? N
   N8         1.0     0.106739     0.092983     0.584890    Uiso  ? N
   N9         1.0     0.879999     0.211429     0.308571    Uiso  ? N
   N10        1.0     0.770374     0.097204     0.088711    Uiso  ? N
   N11        1.0     0.534966     0.223610     0.855262    Uiso  ? N
   N12        1.0     0.430648     0.086313     0.581207    Uiso  ? N
   N13        1.0     0.220161     0.538826     0.384424    Uiso  ? N
   N14        1.0     0.113529     0.429385     0.075167    Uiso  ? N
   N15        1.0     0.881427     0.536907     0.822498    Uiso  ? N
   N16        1.0     0.776180     0.422173     0.599050    Uiso  ? N
   N17        1.0     0.553250     0.536736     0.374795    Uiso  ? N
   N18        1.0     0.436247     0.419535     0.136614    Uiso  ? N
   N19        1.0     0.237378     0.554145     0.883161    Uiso  ? N
   N20        1.0     0.110446     0.422941     0.591973    Uiso  ? N
   N21        1.0     0.904881     0.511315     0.327503    Uiso  ? N
   N22        1.0     0.790154     0.429157     0.091590    Uiso  ? N
   N23        1.0     0.556029     0.544149     0.869007    Uiso  ? N
   N24        1.0     0.431629     0.451203     0.630130    Uiso  ? N
   N25        1.0     0.231373     0.849809     0.386492    Uiso  ? N
   N26        1.0     0.109368     0.750811     0.141672    Uiso  ? N
   N27        1.0     0.916989     0.849137     0.888103    Uiso  ? N
   N28        1.0     0.778589     0.755783     0.579313    Uiso  ? N
   N29        1.0     0.538930     0.885813     0.345789    Uiso  ? N
   N30        1.0     0.440900     0.759791     0.138191    Uiso  ? N
   N31        1.0     0.224166     0.874015     0.865301    Uiso  ? N
   N32        1.0     0.111474     0.758300     0.632669    Uiso  ? N
   N33        1.0     0.906293     0.873262     0.386430    Uiso  ? N
   N34        1.0     0.792170     0.755105     0.121416    Uiso  ? N
   N35        1.0     0.546308     0.882655     0.823762    Uiso  ? N
   N36        1.0     0.444897     0.755970     0.625685    Uiso  ? N
