
#======================================================================
# CRYSTAL DATA
#----------------------------------------------------------------------
data_VESTA_phase_1

_chemical_name_common                  'Mg   Al   Hf   N                      '
_cell_length_a                         9.768469
_cell_length_b                         9.786654
_cell_length_c                         10.258452
_cell_angle_alpha                      89.759361
_cell_angle_beta                       89.537254
_cell_angle_gamma                      60.272675
_cell_volume                           851.619814
_space_group_name_H-M_alt              'P 1'
_space_group_IT_number                 1

loop_
_space_group_symop_operation_xyz
   'x, y, z'

loop_
   _atom_site_label
   _atom_site_occupancy
   _atom_site_fract_x
   _atom_site_fract_y
   _atom_site_fract_z
   _atom_site_adp_type
   _atom_site_U_iso_or_equiv
   _atom_site_type_symbol
   Mg1        1.0     0.114472     0.090660     0.372928    Uiso  ? Mg
   Mg2        1.0     0.556149     0.543437     0.069946    Uiso  ? Mg
   Mg3        1.0     0.226030     0.867764     0.077104    Uiso  ? Mg
   Mg4        1.0     0.764891     0.754556     0.896254    Uiso  ? Mg
   Mg5        1.0     0.544987     0.884682     0.131538    Uiso  ? Mg
   Al1        1.0     0.223226     0.211038     0.138233    Uiso  ? Al
   Al2        1.0     0.897612     0.202363     0.610784    Uiso  ? Al
   Al3        1.0     0.428148     0.095255     0.391015    Uiso  ? Al
   Al4        1.0     0.534237     0.224443     0.059676    Uiso  ? Al
   Al5        1.0     0.120587     0.091841     0.888146    Uiso  ? Al
   Al6        1.0     0.215612     0.195711     0.635796    Uiso  ? Al
   Al7        1.0     0.894587     0.219254     0.088488    Uiso  ? Al
   Al8        1.0     0.434856     0.088018     0.883966    Uiso  ? Al
   Al9        1.0     0.117127     0.416036     0.392710    Uiso  ? Al
   Al10       1.0     0.228236     0.545118     0.078101    Uiso  ? Al
   Al11       1.0     0.765923     0.434804     0.814040    Uiso  ? Al
   Al12       1.0     0.886694     0.541414     0.631410    Uiso  ? Al
   Al13       1.0     0.436712     0.434193     0.320747    Uiso  ? Al
   Al14       1.0     0.219415     0.548391     0.570462    Uiso  ? Al
   Al15       1.0     0.769926     0.424886     0.313798    Uiso  ? Al
   Al16       1.0     0.901874     0.532727     0.142707    Uiso  ? Al
   Al17       1.0     0.440841     0.448899     0.818564    Uiso  ? Al
   Al18       1.0     0.554637     0.546473     0.564793    Uiso  ? Al
   Al19       1.0     0.124780     0.752186     0.323858    Uiso  ? Al
   Al20       1.0     0.901684     0.864338     0.575677    Uiso  ? Al
   Al21       1.0     0.435965     0.756848     0.314674    Uiso  ? Al
   Al22       1.0     0.121973     0.762696     0.820412    Uiso  ? Al
   Al23       1.0     0.228441     0.864724     0.570345    Uiso  ? Al
   Al24       1.0     0.909953     0.849132     0.073328    Uiso  ? Al
   Al25       1.0     0.438309     0.762603     0.818517    Uiso  ? Al
   Al26       1.0     0.556389     0.869080     0.635981    Uiso  ? Al
   Hf1        1.0     0.786654     0.086356     0.852078    Uiso  ? Hf
   Hf2        1.0     0.768637     0.094409     0.304630    Uiso  ? Hf
   Hf3        1.0     0.550998     0.210154     0.595754    Uiso  ? Hf
   Hf4        1.0     0.110699     0.429197     0.873103    Uiso  ? Hf
   Hf5        1.0     0.775761     0.756247     0.361063    Uiso  ? Hf
   N1         1.0     0.229118     0.214840     0.323140    Uiso  ? N
   N2         1.0     0.109840     0.114153     0.075330    Uiso  ? N
   N3         1.0     0.897909     0.217108     0.855169    Uiso  ? N
   N4         1.0     0.794766     0.078830     0.637356    Uiso  ? N
   N5         1.0     0.541970     0.216269     0.387838    Uiso  ? N
   N6         1.0     0.429601     0.112037     0.066352    Uiso  ? N
   N7         1.0     0.227864     0.192829     0.819964    Uiso  ? N
   N8         1.0     0.110588     0.090862     0.585569    Uiso  ? N
   N9         1.0     0.876677     0.211440     0.346613    Uiso  ? N
   N10        1.0     0.772284     0.099918     0.090790    Uiso  ? N
   N11        1.0     0.535750     0.223134     0.856102    Uiso  ? N
   N12        1.0     0.430341     0.086529     0.581042    Uiso  ? N
   N13        1.0     0.222868     0.538210     0.384519    Uiso  ? N
   N14        1.0     0.111127     0.430278     0.078262    Uiso  ? N
   N15        1.0     0.881059     0.539256     0.818123    Uiso  ? N
   N16        1.0     0.772053     0.424018     0.621448    Uiso  ? N
   N17        1.0     0.556650     0.535468     0.378493    Uiso  ? N
   N18        1.0     0.437475     0.420263     0.136285    Uiso  ? N
   N19        1.0     0.235619     0.552959     0.884187    Uiso  ? N
   N20        1.0     0.112130     0.422056     0.589829    Uiso  ? N
   N21        1.0     0.905310     0.513984     0.336427    Uiso  ? N
   N22        1.0     0.786827     0.428291     0.126470    Uiso  ? N
   N23        1.0     0.556320     0.543604     0.866321    Uiso  ? N
   N24        1.0     0.431187     0.450690     0.631054    Uiso  ? N
   N25        1.0     0.233414     0.847655     0.386745    Uiso  ? N
   N26        1.0     0.109200     0.750749     0.142114    Uiso  ? N
   N27        1.0     0.915634     0.849380     0.889687    Uiso  ? N
   N28        1.0     0.777194     0.758644     0.578581    Uiso  ? N
   N29        1.0     0.537104     0.885613     0.345554    Uiso  ? N
   N30        1.0     0.442018     0.757030     0.137719    Uiso  ? N
   N31        1.0     0.223178     0.873656     0.866044    Uiso  ? N
   N32        1.0     0.111689     0.757769     0.633525    Uiso  ? N
   N33        1.0     0.908274     0.872101     0.387006    Uiso  ? N
   N34        1.0     0.791854     0.755270     0.123302    Uiso  ? N
   N35        1.0     0.545655     0.883210     0.823926    Uiso  ? N
   N36        1.0     0.444795     0.756340     0.626702    Uiso  ? N
