
#======================================================================
# CRYSTAL DATA
#----------------------------------------------------------------------
data_VESTA_phase_1

_chemical_name_common                  'Mg   Al   Hf   N                      '
_cell_length_a                         9.800485
_cell_length_b                         9.825985
_cell_length_c                         10.169538
_cell_angle_alpha                      89.732796
_cell_angle_beta                       89.516914
_cell_angle_gamma                      59.997959
_cell_volume                           848.068823
_space_group_name_H-M_alt              'P 1'
_space_group_IT_number                 1

loop_
_space_group_symop_operation_xyz
   'x, y, z'

loop_
   _atom_site_label
   _atom_site_occupancy
   _atom_site_fract_x
   _atom_site_fract_y
   _atom_site_fract_z
   _atom_site_adp_type
   _atom_site_U_iso_or_equiv
   _atom_site_type_symbol
   Mg1        1.0     0.118678     0.088723     0.359425    Uiso  ? Mg
   Mg2        1.0     0.558634     0.539630     0.074108    Uiso  ? Mg
   Mg3        1.0     0.227213     0.864533     0.082187    Uiso  ? Mg
   Mg4        1.0     0.776393     0.765460     0.821793    Uiso  ? Mg
   Mg5        1.0     0.551718     0.877761     0.123725    Uiso  ? Mg
   Al1        1.0     0.222953     0.214061     0.136806    Uiso  ? Al
   Al2        1.0     0.891946     0.205948     0.566776    Uiso  ? Al
   Al3        1.0     0.428434     0.094982     0.389765    Uiso  ? Al
   Al4        1.0     0.536297     0.221775     0.062366    Uiso  ? Al
   Al5        1.0     0.123204     0.090438     0.894963    Uiso  ? Al
   Al6        1.0     0.215251     0.190680     0.637704    Uiso  ? Al
   Al7        1.0     0.894439     0.224591     0.072712    Uiso  ? Al
   Al8        1.0     0.436200     0.086574     0.884628    Uiso  ? Al
   Al9        1.0     0.119133     0.414659     0.400082    Uiso  ? Al
   Al10       1.0     0.225950     0.543623     0.074436    Uiso  ? Al
   Al11       1.0     0.767961     0.432418     0.811236    Uiso  ? Al
   Al12       1.0     0.885919     0.532755     0.603183    Uiso  ? Al
   Al13       1.0     0.435224     0.433664     0.321343    Uiso  ? Al
   Al14       1.0     0.220223     0.550327     0.574358    Uiso  ? Al
   Al15       1.0     0.773309     0.426474     0.326469    Uiso  ? Al
   Al16       1.0     0.893915     0.537344     0.105486    Uiso  ? Al
   Al17       1.0     0.442337     0.449326     0.820439    Uiso  ? Al
   Al18       1.0     0.551784     0.546094     0.566782    Uiso  ? Al
   Al19       1.0     0.122891     0.750676     0.322795    Uiso  ? Al
   Al20       1.0     0.901266     0.868119     0.576967    Uiso  ? Al
   Al21       1.0     0.437378     0.754894     0.315654    Uiso  ? Al
   Al22       1.0     0.123603     0.765206     0.821695    Uiso  ? Al
   Al23       1.0     0.225077     0.867967     0.567926    Uiso  ? Al
   Al24       1.0     0.906141     0.847095     0.072497    Uiso  ? Al
   Al25       1.0     0.439588     0.761892     0.821272    Uiso  ? Al
   Al26       1.0     0.547143     0.872704     0.629089    Uiso  ? Al
   Hf1        1.0     0.788904     0.092072     0.848579    Uiso  ? Hf
   Hf2        1.0     0.771250     0.096909     0.308387    Uiso  ? Hf
   Hf3        1.0     0.549114     0.210022     0.598269    Uiso  ? Hf
   Hf4        1.0     0.113700     0.429457     0.856626    Uiso  ? Hf
   Hf5        1.0     0.777344     0.754024     0.359632    Uiso  ? Hf
   N1         1.0     0.228638     0.218643     0.323126    Uiso  ? N
   N2         1.0     0.111365     0.110732     0.087506    Uiso  ? N
   N3         1.0     0.894778     0.223765     0.881954    Uiso  ? N
   N4         1.0     0.794882     0.084039     0.635326    Uiso  ? N
   N5         1.0     0.542947     0.213681     0.386649    Uiso  ? N
   N6         1.0     0.432384     0.109680     0.068492    Uiso  ? N
   N7         1.0     0.228214     0.188694     0.823451    Uiso  ? N
   N8         1.0     0.108734     0.091898     0.583503    Uiso  ? N
   N9         1.0     0.871515     0.215240     0.378410    Uiso  ? N
   N10        1.0     0.771937     0.100738     0.095723    Uiso  ? N
   N11        1.0     0.537601     0.221336     0.854567    Uiso  ? N
   N12        1.0     0.427375     0.089044     0.580761    Uiso  ? N
   N13        1.0     0.220702     0.538125     0.386953    Uiso  ? N
   N14        1.0     0.110167     0.429482     0.070599    Uiso  ? N
   N15        1.0     0.880821     0.534987     0.824834    Uiso  ? N
   N16        1.0     0.769912     0.420279     0.622917    Uiso  ? N
   N17        1.0     0.554372     0.534073     0.379271    Uiso  ? N
   N18        1.0     0.435419     0.419995     0.135430    Uiso  ? N
   N19        1.0     0.235835     0.555192     0.881778    Uiso  ? N
   N20        1.0     0.120042     0.419943     0.603240    Uiso  ? N
   N21        1.0     0.896824     0.512580     0.392401    Uiso  ? N
   N22        1.0     0.792695     0.425393     0.140421    Uiso  ? N
   N23        1.0     0.558623     0.541566     0.868148    Uiso  ? N
   N24        1.0     0.431830     0.450230     0.631674    Uiso  ? N
   N25        1.0     0.231157     0.847361     0.382347    Uiso  ? N
   N26        1.0     0.107535     0.748906     0.139692    Uiso  ? N
   N27        1.0     0.913396     0.854292     0.887321    Uiso  ? N
   N28        1.0     0.776777     0.765386     0.595375    Uiso  ? N
   N29        1.0     0.537066     0.881718     0.353729    Uiso  ? N
   N30        1.0     0.446153     0.754822     0.137306    Uiso  ? N
   N31        1.0     0.223601     0.874279     0.870021    Uiso  ? N
   N32        1.0     0.111507     0.760643     0.633747    Uiso  ? N
   N33        1.0     0.906173     0.873079     0.388204    Uiso  ? N
   N34        1.0     0.798011     0.750773     0.142028    Uiso  ? N
   N35        1.0     0.541813     0.884416     0.821740    Uiso  ? N
   N36        1.0     0.441061     0.756487     0.626303    Uiso  ? N
