
#======================================================================
# CRYSTAL DATA
#----------------------------------------------------------------------
data_VESTA_phase_1

_chemical_name_common                  'Mg   Al   Hf   N                      '
_cell_length_a                         9.851720
_cell_length_b                         9.863404
_cell_length_c                         9.971733
_cell_angle_alpha                      89.930878
_cell_angle_beta                       89.390892
_cell_angle_gamma                      60.099133
_cell_volume                           839.931257
_space_group_name_H-M_alt              'P 1'
_space_group_IT_number                 1

loop_
_space_group_symop_operation_xyz
   'x, y, z'

loop_
   _atom_site_label
   _atom_site_occupancy
   _atom_site_fract_x
   _atom_site_fract_y
   _atom_site_fract_z
   _atom_site_adp_type
   _atom_site_U_iso_or_equiv
   _atom_site_type_symbol
   Mg1        1.0     0.117171     0.094649     0.368828    Uiso  ? Mg
   Mg2        1.0     0.567426     0.524863     0.120937    Uiso  ? Mg
   Mg3        1.0     0.211677     0.875006     0.087598    Uiso  ? Mg
   Mg4        1.0     0.772146     0.758386     0.881847    Uiso  ? Mg
   Mg5        1.0     0.551178     0.884017     0.113917    Uiso  ? Mg
   Al1        1.0     0.220575     0.212711     0.134234    Uiso  ? Al
   Al2        1.0     0.900052     0.204657     0.630260    Uiso  ? Al
   Al3        1.0     0.428356     0.094133     0.381153    Uiso  ? Al
   Al4        1.0     0.529877     0.218113     0.141098    Uiso  ? Al
   Al5        1.0     0.117939     0.090199     0.885481    Uiso  ? Al
   Al6        1.0     0.218680     0.190729     0.629732    Uiso  ? Al
   Al7        1.0     0.900197     0.222917     0.133346    Uiso  ? Al
   Al8        1.0     0.436893     0.093251     0.886600    Uiso  ? Al
   Al9        1.0     0.114823     0.419313     0.390189    Uiso  ? Al
   Al10       1.0     0.222157     0.537877     0.087799    Uiso  ? Al
   Al11       1.0     0.778450     0.430067     0.881674    Uiso  ? Al
   Al12       1.0     0.878462     0.541308     0.628526    Uiso  ? Al
   Al13       1.0     0.440537     0.445981     0.383146    Uiso  ? Al
   Al14       1.0     0.215498     0.550270     0.579785    Uiso  ? Al
   Al15       1.0     0.770209     0.431132     0.387701    Uiso  ? Al
   Al16       1.0     0.898551     0.527127     0.133467    Uiso  ? Al
   Al17       1.0     0.444943     0.434719     0.886695    Uiso  ? Al
   Al18       1.0     0.552446     0.549633     0.640582    Uiso  ? Al
   Al19       1.0     0.124751     0.747685     0.320672    Uiso  ? Al
   Al20       1.0     0.898841     0.863733     0.570750    Uiso  ? Al
   Al21       1.0     0.438100     0.759487     0.301042    Uiso  ? Al
   Al22       1.0     0.122286     0.768487     0.814978    Uiso  ? Al
   Al23       1.0     0.233335     0.864520     0.561127    Uiso  ? Al
   Al24       1.0     0.907886     0.847458     0.079802    Uiso  ? Al
   Al25       1.0     0.441408     0.762565     0.894964    Uiso  ? Al
   Al26       1.0     0.546713     0.866826     0.642992    Uiso  ? Al
   Hf1        1.0     0.776434     0.100634     0.891562    Uiso  ? Hf
   Hf2        1.0     0.781063     0.097519     0.347330    Uiso  ? Hf
   Hf3        1.0     0.547567     0.209213     0.616332    Uiso  ? Hf
   Hf4        1.0     0.111438     0.428697     0.858341    Uiso  ? Hf
   Hf5        1.0     0.769926     0.756329     0.352915    Uiso  ? Hf
   N1         1.0     0.226424     0.218281     0.323149    Uiso  ? N
   N2         1.0     0.105937     0.116170     0.077918    Uiso  ? N
   N3         1.0     0.898104     0.209537     0.825084    Uiso  ? N
   N4         1.0     0.789837     0.091371     0.579997    Uiso  ? N
   N5         1.0     0.533918     0.218735     0.341714    Uiso  ? N
   N6         1.0     0.430950     0.117077     0.072860    Uiso  ? N
   N7         1.0     0.229922     0.189027     0.820307    Uiso  ? N
   N8         1.0     0.110464     0.090685     0.579949    Uiso  ? N
   N9         1.0     0.884171     0.226168     0.321108    Uiso  ? N
   N10        1.0     0.774256     0.096060     0.109583    Uiso  ? N
   N11        1.0     0.539855     0.213131     0.826480    Uiso  ? N
   N12        1.0     0.433600     0.084415     0.574082    Uiso  ? N
   N13        1.0     0.219009     0.538243     0.377709    Uiso  ? N
   N14        1.0     0.111058     0.428473     0.073678    Uiso  ? N
   N15        1.0     0.877138     0.536149     0.816294    Uiso  ? N
   N16        1.0     0.775327     0.425393     0.579660    Uiso  ? N
   N17        1.0     0.560197     0.537170     0.331056    Uiso  ? N
   N18        1.0     0.439254     0.418910     0.077232    Uiso  ? N
   N19        1.0     0.231115     0.551057     0.851148    Uiso  ? N
   N20        1.0     0.109691     0.423570     0.592728    Uiso  ? N
   N21        1.0     0.901696     0.513781     0.330709    Uiso  ? N
   N22        1.0     0.797566     0.422994     0.067611    Uiso  ? N
   N23        1.0     0.560718     0.533453     0.836940    Uiso  ? N
   N24        1.0     0.439630     0.446514     0.579661    Uiso  ? N
   N25        1.0     0.231156     0.851840     0.364952    Uiso  ? N
   N26        1.0     0.110381     0.744574     0.134911    Uiso  ? N
   N27        1.0     0.910043     0.863911     0.884200    Uiso  ? N
   N28        1.0     0.772324     0.762334     0.580510    Uiso  ? N
   N29        1.0     0.532468     0.886676     0.326796    Uiso  ? N
   N30        1.0     0.445944     0.756991     0.095559    Uiso  ? N
   N31        1.0     0.221355     0.873554     0.871316    Uiso  ? N
   N32        1.0     0.108805     0.766257     0.623196    Uiso  ? N
   N33        1.0     0.911175     0.858126     0.374897    Uiso  ? N
   N34        1.0     0.794463     0.748243     0.116371    Uiso  ? N
   N35        1.0     0.542149     0.881777     0.838108    Uiso  ? N
   N36        1.0     0.444260     0.759524     0.606023    Uiso  ? N
