
#======================================================================
# CRYSTAL DATA
#----------------------------------------------------------------------
data_VESTA_phase_1

_chemical_name_common                  'Mg   Al   Hf   N                      '
_cell_length_a                         9.849801
_cell_length_b                         9.864295
_cell_length_c                         9.963174
_cell_angle_alpha                      89.950333
_cell_angle_beta                       89.409317
_cell_angle_gamma                      60.112167
_cell_volume                           839.234380
_space_group_name_H-M_alt              'P 1'
_space_group_IT_number                 1

loop_
_space_group_symop_operation_xyz
   'x, y, z'

loop_
   _atom_site_label
   _atom_site_occupancy
   _atom_site_fract_x
   _atom_site_fract_y
   _atom_site_fract_z
   _atom_site_adp_type
   _atom_site_U_iso_or_equiv
   _atom_site_type_symbol
   Mg1        1.0     0.117060     0.094980     0.368928    Uiso  ? Mg
   Mg2        1.0     0.567183     0.524888     0.120352    Uiso  ? Mg
   Mg3        1.0     0.211772     0.874792     0.087375    Uiso  ? Mg
   Mg4        1.0     0.772233     0.758186     0.881464    Uiso  ? Mg
   Mg5        1.0     0.551279     0.883985     0.113695    Uiso  ? Mg
   Al1        1.0     0.220847     0.211928     0.134452    Uiso  ? Al
   Al2        1.0     0.900039     0.204763     0.630193    Uiso  ? Al
   Al3        1.0     0.428395     0.094145     0.381020    Uiso  ? Al
   Al4        1.0     0.530360     0.217777     0.140529    Uiso  ? Al
   Al5        1.0     0.117932     0.090226     0.885178    Uiso  ? Al
   Al6        1.0     0.218427     0.191362     0.629693    Uiso  ? Al
   Al7        1.0     0.900145     0.222890     0.133204    Uiso  ? Al
   Al8        1.0     0.436859     0.093376     0.886364    Uiso  ? Al
   Al9        1.0     0.115144     0.419427     0.390756    Uiso  ? Al
   Al10       1.0     0.223120     0.533803     0.110913    Uiso  ? Al
   Al11       1.0     0.778505     0.429990     0.881433    Uiso  ? Al
   Al12       1.0     0.878975     0.541067     0.628445    Uiso  ? Al
   Al13       1.0     0.440460     0.446208     0.383415    Uiso  ? Al
   Al14       1.0     0.216983     0.548822     0.591692    Uiso  ? Al
   Al15       1.0     0.770160     0.431232     0.387618    Uiso  ? Al
   Al16       1.0     0.898017     0.527321     0.133736    Uiso  ? Al
   Al17       1.0     0.441651     0.436407     0.886441    Uiso  ? Al
   Al18       1.0     0.552446     0.549560     0.640581    Uiso  ? Al
   Al19       1.0     0.123815     0.749856     0.322050    Uiso  ? Al
   Al20       1.0     0.898422     0.864077     0.570476    Uiso  ? Al
   Al21       1.0     0.438280     0.759439     0.300803    Uiso  ? Al
   Al22       1.0     0.122187     0.768631     0.813720    Uiso  ? Al
   Al23       1.0     0.233291     0.864899     0.560921    Uiso  ? Al
   Al24       1.0     0.908378     0.846827     0.079291    Uiso  ? Al
   Al25       1.0     0.441458     0.762447     0.894784    Uiso  ? Al
   Al26       1.0     0.546686     0.866831     0.642895    Uiso  ? Al
   Hf1        1.0     0.776501     0.100450     0.891083    Uiso  ? Hf
   Hf2        1.0     0.780793     0.097782     0.347235    Uiso  ? Hf
   Hf3        1.0     0.547541     0.209253     0.616332    Uiso  ? Hf
   Hf4        1.0     0.112251     0.429393     0.860456    Uiso  ? Hf
   Hf5        1.0     0.769798     0.756308     0.352968    Uiso  ? Hf
   N1         1.0     0.226416     0.218225     0.323200    Uiso  ? N
   N2         1.0     0.105909     0.116157     0.077745    Uiso  ? N
   N3         1.0     0.898081     0.209495     0.825077    Uiso  ? N
   N4         1.0     0.789610     0.091592     0.580028    Uiso  ? N
   N5         1.0     0.533984     0.218619     0.341275    Uiso  ? N
   N6         1.0     0.430928     0.117018     0.072794    Uiso  ? N
   N7         1.0     0.229547     0.189808     0.820450    Uiso  ? N
   N8         1.0     0.110464     0.090971     0.580113    Uiso  ? N
   N9         1.0     0.884147     0.226236     0.321074    Uiso  ? N
   N10        1.0     0.773982     0.096454     0.109186    Uiso  ? N
   N11        1.0     0.539818     0.213263     0.826666    Uiso  ? N
   N12        1.0     0.433602     0.084443     0.574131    Uiso  ? N
   N13        1.0     0.220254     0.536688     0.368965    Uiso  ? N
   N14        1.0     0.111613     0.429131     0.075104    Uiso  ? N
   N15        1.0     0.878079     0.535610     0.816398    Uiso  ? N
   N16        1.0     0.775289     0.425472     0.579780    Uiso  ? N
   N17        1.0     0.560275     0.537160     0.330643    Uiso  ? N
   N18        1.0     0.437014     0.419792     0.076799    Uiso  ? N
   N19        1.0     0.232887     0.548275     0.832648    Uiso  ? N
   N20        1.0     0.109669     0.423685     0.590944    Uiso  ? N
   N21        1.0     0.901658     0.513843     0.330736    Uiso  ? N
   N22        1.0     0.797627     0.422933     0.067521    Uiso  ? N
   N23        1.0     0.560350     0.533225     0.837321    Uiso  ? N
   N24        1.0     0.440117     0.446246     0.577915    Uiso  ? N
   N25        1.0     0.231457     0.852515     0.364872    Uiso  ? N
   N26        1.0     0.110196     0.745352     0.135072    Uiso  ? N
   N27        1.0     0.910426     0.863456     0.883824    Uiso  ? N
   N28        1.0     0.772317     0.762313     0.580648    Uiso  ? N
   N29        1.0     0.532486     0.886697     0.326739    Uiso  ? N
   N30        1.0     0.446011     0.757004     0.095430    Uiso  ? N
   N31        1.0     0.221312     0.873278     0.871196    Uiso  ? N
   N32        1.0     0.108058     0.768125     0.620946    Uiso  ? N
   N33        1.0     0.910511     0.858556     0.374729    Uiso  ? N
   N34        1.0     0.794534     0.748165     0.116166    Uiso  ? N
   N35        1.0     0.542100     0.881821     0.838135    Uiso  ? N
   N36        1.0     0.444232     0.759432     0.606138    Uiso  ? N
