
#======================================================================
# CRYSTAL DATA
#----------------------------------------------------------------------
data_VESTA_phase_1

_chemical_name_common                  'Mg   Al   Hf   N                      '
_cell_length_a                         9.797132
_cell_length_b                         9.821012
_cell_length_c                         10.187326
_cell_angle_alpha                      89.684418
_cell_angle_beta                       89.478394
_cell_angle_gamma                      60.012562
_cell_volume                           848.951336
_space_group_name_H-M_alt              'P 1'
_space_group_IT_number                 1

loop_
_space_group_symop_operation_xyz
   'x, y, z'

loop_
   _atom_site_label
   _atom_site_occupancy
   _atom_site_fract_x
   _atom_site_fract_y
   _atom_site_fract_z
   _atom_site_adp_type
   _atom_site_U_iso_or_equiv
   _atom_site_type_symbol
   Mg1        1.0     0.118784     0.088716     0.360045    Uiso  ? Mg
   Mg2        1.0     0.559129     0.539872     0.073556    Uiso  ? Mg
   Mg3        1.0     0.227165     0.864687     0.081901    Uiso  ? Mg
   Mg4        1.0     0.775840     0.765181     0.824682    Uiso  ? Mg
   Mg5        1.0     0.551912     0.877793     0.124536    Uiso  ? Mg
   Al1        1.0     0.223697     0.212855     0.137158    Uiso  ? Al
   Al2        1.0     0.892094     0.205722     0.566448    Uiso  ? Al
   Al3        1.0     0.428277     0.094986     0.390135    Uiso  ? Al
   Al4        1.0     0.536693     0.221658     0.062103    Uiso  ? Al
   Al5        1.0     0.123448     0.090368     0.894491    Uiso  ? Al
   Al6        1.0     0.214635     0.191837     0.637467    Uiso  ? Al
   Al7        1.0     0.894244     0.225004     0.071901    Uiso  ? Al
   Al8        1.0     0.436311     0.086820     0.884368    Uiso  ? Al
   Al9        1.0     0.119136     0.414635     0.399389    Uiso  ? Al
   Al10       1.0     0.226233     0.543926     0.075082    Uiso  ? Al
   Al11       1.0     0.767908     0.432174     0.809917    Uiso  ? Al
   Al12       1.0     0.886883     0.533754     0.613021    Uiso  ? Al
   Al13       1.0     0.435129     0.433621     0.321019    Uiso  ? Al
   Al14       1.0     0.220010     0.549886     0.573584    Uiso  ? Al
   Al15       1.0     0.771781     0.425370     0.326093    Uiso  ? Al
   Al16       1.0     0.897414     0.535473     0.126497    Uiso  ? Al
   Al17       1.0     0.442278     0.448953     0.820214    Uiso  ? Al
   Al18       1.0     0.551527     0.546188     0.566252    Uiso  ? Al
   Al19       1.0     0.122869     0.750835     0.322698    Uiso  ? Al
   Al20       1.0     0.901636     0.868278     0.576880    Uiso  ? Al
   Al21       1.0     0.436972     0.755048     0.315422    Uiso  ? Al
   Al22       1.0     0.123544     0.764660     0.821537    Uiso  ? Al
   Al23       1.0     0.225142     0.867836     0.567812    Uiso  ? Al
   Al24       1.0     0.905876     0.847190     0.072668    Uiso  ? Al
   Al25       1.0     0.439404     0.761869     0.820731    Uiso  ? Al
   Al26       1.0     0.547040     0.872802     0.628986    Uiso  ? Al
   Hf1        1.0     0.789259     0.091920     0.848514    Uiso  ? Hf
   Hf2        1.0     0.771581     0.096646     0.307722    Uiso  ? Hf
   Hf3        1.0     0.549501     0.209978     0.597791    Uiso  ? Hf
   Hf4        1.0     0.111851     0.429674     0.861092    Uiso  ? Hf
   Hf5        1.0     0.776050     0.755819     0.361893    Uiso  ? Hf
   N1         1.0     0.229139     0.218100     0.322817    Uiso  ? N
   N2         1.0     0.111348     0.110894     0.086567    Uiso  ? N
   N3         1.0     0.894953     0.224373     0.881313    Uiso  ? N
   N4         1.0     0.795098     0.083815     0.635773    Uiso  ? N
   N5         1.0     0.543356     0.213354     0.386568    Uiso  ? N
   N6         1.0     0.432374     0.109713     0.067934    Uiso  ? N
   N7         1.0     0.228009     0.189804     0.823206    Uiso  ? N
   N8         1.0     0.108922     0.091803     0.583750    Uiso  ? N
   N9         1.0     0.871693     0.214582     0.378752    Uiso  ? N
   N10        1.0     0.772271     0.100747     0.095160    Uiso  ? N
   N11        1.0     0.538146     0.221120     0.854713    Uiso  ? N
   N12        1.0     0.427289     0.089381     0.580961    Uiso  ? N
   N13        1.0     0.221073     0.538213     0.386420    Uiso  ? N
   N14        1.0     0.108644     0.430236     0.072599    Uiso  ? N
   N15        1.0     0.882315     0.534632     0.813479    Uiso  ? N
   N16        1.0     0.769831     0.420413     0.620601    Uiso  ? N
   N17        1.0     0.553670     0.534230     0.379252    Uiso  ? N
   N18        1.0     0.435610     0.419837     0.135310    Uiso  ? N
   N19        1.0     0.235574     0.554210     0.882123    Uiso  ? N
   N20        1.0     0.119186     0.419706     0.599288    Uiso  ? N
   N21        1.0     0.898787     0.512831     0.377240    Uiso  ? N
   N22        1.0     0.791487     0.424481     0.140300    Uiso  ? N
   N23        1.0     0.558877     0.541456     0.867603    Uiso  ? N
   N24        1.0     0.431480     0.450155     0.631800    Uiso  ? N
   N25        1.0     0.231038     0.847447     0.382548    Uiso  ? N
   N26        1.0     0.107473     0.749138     0.139739    Uiso  ? N
   N27        1.0     0.913453     0.853854     0.887560    Uiso  ? N
   N28        1.0     0.776658     0.765290     0.593495    Uiso  ? N
   N29        1.0     0.535816     0.881995     0.354055    Uiso  ? N
   N30        1.0     0.445925     0.754928     0.137329    Uiso  ? N
   N31        1.0     0.223511     0.874004     0.869861    Uiso  ? N
   N32        1.0     0.111682     0.760080     0.633908    Uiso  ? N
   N33        1.0     0.906630     0.873684     0.388603    Uiso  ? N
   N34        1.0     0.797105     0.752888     0.143278    Uiso  ? N
   N35        1.0     0.541667     0.884527     0.821296    Uiso  ? N
   N36        1.0     0.441031     0.756420     0.626306    Uiso  ? N
