
#======================================================================
# CRYSTAL DATA
#----------------------------------------------------------------------
data_VESTA_phase_1

_chemical_name_common                  'Mg   Al   Hf   N                      '
_cell_length_a                         9.834720
_cell_length_b                         9.848141
_cell_length_c                         10.050283
_cell_angle_alpha                      89.920647
_cell_angle_beta                       89.465424
_cell_angle_gamma                      60.099258
_cell_volume                           843.794511
_space_group_name_H-M_alt              'P 1'
_space_group_IT_number                 1

loop_
_space_group_symop_operation_xyz
   'x, y, z'

loop_
   _atom_site_label
   _atom_site_occupancy
   _atom_site_fract_x
   _atom_site_fract_y
   _atom_site_fract_z
   _atom_site_adp_type
   _atom_site_U_iso_or_equiv
   _atom_site_type_symbol
   Mg1        1.0     0.120381     0.089790     0.371363    Uiso  ? Mg
   Mg2        1.0     0.566402     0.527853     0.122340    Uiso  ? Mg
   Mg3        1.0     0.218571     0.870660     0.076542    Uiso  ? Mg
   Mg4        1.0     0.771037     0.758258     0.887571    Uiso  ? Mg
   Mg5        1.0     0.547647     0.882391     0.114029    Uiso  ? Mg
   Al1        1.0     0.220202     0.212659     0.133376    Uiso  ? Al
   Al2        1.0     0.899817     0.203869     0.631304    Uiso  ? Al
   Al3        1.0     0.428427     0.094663     0.381114    Uiso  ? Al
   Al4        1.0     0.528740     0.219020     0.142516    Uiso  ? Al
   Al5        1.0     0.115178     0.093227     0.885013    Uiso  ? Al
   Al6        1.0     0.218551     0.191181     0.630569    Uiso  ? Al
   Al7        1.0     0.901419     0.221849     0.134284    Uiso  ? Al
   Al8        1.0     0.436873     0.094334     0.887591    Uiso  ? Al
   Al9        1.0     0.114892     0.418099     0.388212    Uiso  ? Al
   Al10       1.0     0.221913     0.543308     0.072092    Uiso  ? Al
   Al11       1.0     0.777919     0.430530     0.882828    Uiso  ? Al
   Al12       1.0     0.878809     0.541459     0.628936    Uiso  ? Al
   Al13       1.0     0.440432     0.445186     0.382675    Uiso  ? Al
   Al14       1.0     0.213406     0.551299     0.572474    Uiso  ? Al
   Al15       1.0     0.772659     0.429097     0.387350    Uiso  ? Al
   Al16       1.0     0.899528     0.526474     0.133146    Uiso  ? Al
   Al17       1.0     0.447880     0.434023     0.888748    Uiso  ? Al
   Al18       1.0     0.556655     0.542944     0.637768    Uiso  ? Al
   Al19       1.0     0.127886     0.746518     0.318744    Uiso  ? Al
   Al20       1.0     0.899109     0.863038     0.568812    Uiso  ? Al
   Al21       1.0     0.436117     0.759730     0.298888    Uiso  ? Al
   Al22       1.0     0.117150     0.769450     0.817396    Uiso  ? Al
   Al23       1.0     0.231372     0.863775     0.567980    Uiso  ? Al
   Al24       1.0     0.907179     0.850004     0.082700    Uiso  ? Al
   Al25       1.0     0.436717     0.766376     0.844516    Uiso  ? Al
   Al26       1.0     0.551985     0.869690     0.640008    Uiso  ? Al
   Hf1        1.0     0.774261     0.102797     0.895474    Uiso  ? Hf
   Hf2        1.0     0.781185     0.097611     0.347778    Uiso  ? Hf
   Hf3        1.0     0.547495     0.209566     0.617418    Uiso  ? Hf
   Hf4        1.0     0.110627     0.429112     0.858107    Uiso  ? Hf
   Hf5        1.0     0.771061     0.755887     0.350335    Uiso  ? Hf
   N1         1.0     0.226248     0.216841     0.321731    Uiso  ? N
   N2         1.0     0.106118     0.115199     0.075471    Uiso  ? N
   N3         1.0     0.896137     0.210344     0.824630    Uiso  ? N
   N4         1.0     0.789588     0.091201     0.578387    Uiso  ? N
   N5         1.0     0.533274     0.219008     0.341270    Uiso  ? N
   N6         1.0     0.431488     0.116550     0.072626    Uiso  ? N
   N7         1.0     0.229799     0.189502     0.819857    Uiso  ? N
   N8         1.0     0.110506     0.090422     0.581853    Uiso  ? N
   N9         1.0     0.887287     0.223809     0.320769    Uiso  ? N
   N10        1.0     0.774369     0.095921     0.111637    Uiso  ? N
   N11        1.0     0.538789     0.214570     0.825958    Uiso  ? N
   N12        1.0     0.433051     0.085503     0.572995    Uiso  ? N
   N13        1.0     0.217953     0.538290     0.379437    Uiso  ? N
   N14        1.0     0.110975     0.428643     0.071122    Uiso  ? N
   N15        1.0     0.875964     0.537302     0.815787    Uiso  ? N
   N16        1.0     0.777238     0.424349     0.578323    Uiso  ? N
   N17        1.0     0.561423     0.536134     0.336382    Uiso  ? N
   N18        1.0     0.441754     0.418297     0.077277    Uiso  ? N
   N19        1.0     0.229045     0.555453     0.868139    Uiso  ? N
   N20        1.0     0.109990     0.423562     0.593226    Uiso  ? N
   N21        1.0     0.902519     0.512656     0.329136    Uiso  ? N
   N22        1.0     0.797514     0.422479     0.067516    Uiso  ? N
   N23        1.0     0.562819     0.529868     0.832617    Uiso  ? N
   N24        1.0     0.437820     0.447008     0.579464    Uiso  ? N
   N25        1.0     0.235477     0.845696     0.377033    Uiso  ? N
   N26        1.0     0.111528     0.746396     0.134850    Uiso  ? N
   N27        1.0     0.907265     0.866127     0.887762    Uiso  ? N
   N28        1.0     0.773085     0.761081     0.577692    Uiso  ? N
   N29        1.0     0.533077     0.885895     0.332209    Uiso  ? N
   N30        1.0     0.443579     0.757306     0.109291    Uiso  ? N
   N31        1.0     0.217548     0.876596     0.866137    Uiso  ? N
   N32        1.0     0.107330     0.763122     0.627877    Uiso  ? N
   N33        1.0     0.913199     0.857616     0.374670    Uiso  ? N
   N34        1.0     0.793794     0.749065     0.117255    Uiso  ? N
   N35        1.0     0.544731     0.885485     0.833857    Uiso  ? N
   N36        1.0     0.440597     0.761356     0.634060    Uiso  ? N
