
#======================================================================
# CRYSTAL DATA
#----------------------------------------------------------------------
data_VESTA_phase_1

_chemical_name_common                  'Mg   Al   Hf   N                      '
_cell_length_a                         9.851426
_cell_length_b                         9.862418
_cell_length_c                         9.975963
_cell_angle_alpha                      89.923050
_cell_angle_beta                       89.385086
_cell_angle_gamma                      60.096344
_cell_volume                           840.154421
_space_group_name_H-M_alt              'P 1'
_space_group_IT_number                 1

loop_
_space_group_symop_operation_xyz
   'x, y, z'

loop_
   _atom_site_label
   _atom_site_occupancy
   _atom_site_fract_x
   _atom_site_fract_y
   _atom_site_fract_z
   _atom_site_adp_type
   _atom_site_U_iso_or_equiv
   _atom_site_type_symbol
   Mg1        1.0     0.117226     0.094500     0.368784    Uiso  ? Mg
   Mg2        1.0     0.567463     0.524825     0.121203    Uiso  ? Mg
   Mg3        1.0     0.211624     0.875081     0.087684    Uiso  ? Mg
   Mg4        1.0     0.772092     0.758447     0.882063    Uiso  ? Mg
   Mg5        1.0     0.551121     0.884055     0.114060    Uiso  ? Mg
   Al1        1.0     0.220441     0.213109     0.134114    Uiso  ? Al
   Al2        1.0     0.900054     0.204586     0.630291    Uiso  ? Al
   Al3        1.0     0.428342     0.094120     0.381191    Uiso  ? Al
   Al4        1.0     0.529607     0.218362     0.141284    Uiso  ? Al
   Al5        1.0     0.117907     0.090199     0.885634    Uiso  ? Al
   Al6        1.0     0.218794     0.190475     0.629728    Uiso  ? Al
   Al7        1.0     0.900209     0.222934     0.133408    Uiso  ? Al
   Al8        1.0     0.436901     0.093210     0.886702    Uiso  ? Al
   Al9        1.0     0.114814     0.419310     0.389921    Uiso  ? Al
   Al10       1.0     0.221903     0.539355     0.080951    Uiso  ? Al
   Al11       1.0     0.778393     0.430082     0.881791    Uiso  ? Al
   Al12       1.0     0.878276     0.541416     0.628522    Uiso  ? Al
   Al13       1.0     0.440469     0.445926     0.382985    Uiso  ? Al
   Al14       1.0     0.215170     0.550647     0.577527    Uiso  ? Al
   Al15       1.0     0.770250     0.431078     0.387720    Uiso  ? Al
   Al16       1.0     0.898835     0.527046     0.133331    Uiso  ? Al
   Al17       1.0     0.446098     0.434112     0.886871    Uiso  ? Al
   Al18       1.0     0.552442     0.549671     0.640515    Uiso  ? Al
   Al19       1.0     0.125032     0.746998     0.319957    Uiso  ? Al
   Al20       1.0     0.899015     0.863563     0.570825    Uiso  ? Al
   Al21       1.0     0.438031     0.759489     0.301150    Uiso  ? Al
   Al22       1.0     0.122204     0.768569     0.815571    Uiso  ? Al
   Al23       1.0     0.233352     0.864340     0.561180    Uiso  ? Al
   Al24       1.0     0.907744     0.847681     0.080014    Uiso  ? Al
   Al25       1.0     0.441415     0.762612     0.895087    Uiso  ? Al
   Al26       1.0     0.546739     0.866812     0.643027    Uiso  ? Al
   Hf1        1.0     0.776324     0.100749     0.891803    Uiso  ? Hf
   Hf2        1.0     0.781191     0.097367     0.347314    Uiso  ? Hf
   Hf3        1.0     0.547605     0.209182     0.616244    Uiso  ? Hf
   Hf4        1.0     0.111127     0.428427     0.857733    Uiso  ? Hf
   Hf5        1.0     0.769988     0.756311     0.352865    Uiso  ? Hf
   N1         1.0     0.226423     0.218282     0.323105    Uiso  ? N
   N2         1.0     0.105950     0.116200     0.077966    Uiso  ? N
   N3         1.0     0.898084     0.209542     0.825084    Uiso  ? N
   N4         1.0     0.789946     0.091258     0.579954    Uiso  ? N
   N5         1.0     0.533931     0.218729     0.341905    Uiso  ? N
   N6         1.0     0.430964     0.117091     0.072866    Uiso  ? N
   N7         1.0     0.229988     0.188796     0.820230    Uiso  ? N
   N8         1.0     0.110465     0.090572     0.579877    Uiso  ? N
   N9         1.0     0.884191     0.226134     0.321108    Uiso  ? N
   N10        1.0     0.774361     0.095914     0.109749    Uiso  ? N
   N11        1.0     0.539799     0.213129     0.826319    Uiso  ? N
   N12        1.0     0.433612     0.084390     0.574057    Uiso  ? N
   N13        1.0     0.218780     0.538446     0.378937    Uiso  ? N
   N14        1.0     0.110926     0.428371     0.072963    Uiso  ? N
   N15        1.0     0.876855     0.536275     0.816233    Uiso  ? N
   N16        1.0     0.775360     0.425345     0.579601    Uiso  ? N
   N17        1.0     0.560175     0.537165     0.331239    Uiso  ? N
   N18        1.0     0.439860     0.418701     0.077270    Uiso  ? N
   N19        1.0     0.230518     0.552040     0.857136    Uiso  ? N
   N20        1.0     0.109806     0.423634     0.593308    Uiso  ? N
   N21        1.0     0.901757     0.513731     0.330689    Uiso  ? N
   N22        1.0     0.797526     0.423039     0.067638    Uiso  ? N
   N23        1.0     0.560792     0.533558     0.836720    Uiso  ? N
   N24        1.0     0.439317     0.446670     0.580116    Uiso  ? N
   N25        1.0     0.231045     0.851547     0.365021    Uiso  ? N
   N26        1.0     0.110432     0.744359     0.134633    Uiso  ? N
   N27        1.0     0.909839     0.864107     0.884334    Uiso  ? N
   N28        1.0     0.772318     0.762325     0.580456    Uiso  ? N
   N29        1.0     0.532453     0.886660     0.326831    Uiso  ? N
   N30        1.0     0.445934     0.756984     0.095603    Uiso  ? N
   N31        1.0     0.221401     0.873642     0.871358    Uiso  ? N
   N32        1.0     0.109048     0.765577     0.624056    Uiso  ? N
   N33        1.0     0.911468     0.857901     0.375002    Uiso  ? N
   N34        1.0     0.794406     0.748291     0.116459    Uiso  ? N
   N35        1.0     0.542158     0.881769     0.838074    Uiso  ? N
   N36        1.0     0.444267     0.759563     0.605954    Uiso  ? N
