
#======================================================================
# CRYSTAL DATA
#----------------------------------------------------------------------
data_VESTA_phase_1

_chemical_name_common                  'Mg   Al   Hf   N                      '
_cell_length_a                         9.793565
_cell_length_b                         9.807211
_cell_length_c                         10.124419
_cell_angle_alpha                      89.862686
_cell_angle_beta                       89.607208
_cell_angle_gamma                      59.936474
_cell_volume                           841.585392
_space_group_name_H-M_alt              'P 1'
_space_group_IT_number                 1

loop_
_space_group_symop_operation_xyz
   'x, y, z'

loop_
   _atom_site_label
   _atom_site_occupancy
   _atom_site_fract_x
   _atom_site_fract_y
   _atom_site_fract_z
   _atom_site_adp_type
   _atom_site_U_iso_or_equiv
   _atom_site_type_symbol
   Mg1        1.0     0.116232     0.088112     0.319028    Uiso  ? Mg
   Mg2        1.0     0.556283     0.540073     0.068466    Uiso  ? Mg
   Mg3        1.0     0.224696     0.872806     0.065407    Uiso  ? Mg
   Mg4        1.0     0.778208     0.756691     0.807239    Uiso  ? Mg
   Mg5        1.0     0.555381     0.866913     0.074739    Uiso  ? Mg
   Al1        1.0     0.228612     0.200454     0.126848    Uiso  ? Al
   Al2        1.0     0.893659     0.207386     0.566533    Uiso  ? Al
   Al3        1.0     0.429523     0.096688     0.384442    Uiso  ? Al
   Al4        1.0     0.536071     0.220558     0.056329    Uiso  ? Al
   Al5        1.0     0.115437     0.081885     0.813392    Uiso  ? Al
   Al6        1.0     0.214669     0.205189     0.627904    Uiso  ? Al
   Al7        1.0     0.904490     0.220194     0.058744    Uiso  ? Al
   Al8        1.0     0.434480     0.088207     0.872422    Uiso  ? Al
   Al9        1.0     0.115854     0.429967     0.306082    Uiso  ? Al
   Al10       1.0     0.226560     0.545750     0.072359    Uiso  ? Al
   Al11       1.0     0.770181     0.435702     0.811645    Uiso  ? Al
   Al12       1.0     0.894937     0.529251     0.564750    Uiso  ? Al
   Al13       1.0     0.439177     0.433394     0.315055    Uiso  ? Al
   Al14       1.0     0.213967     0.546117     0.561792    Uiso  ? Al
   Al15       1.0     0.777528     0.425227     0.314864    Uiso  ? Al
   Al16       1.0     0.881633     0.540043     0.070856    Uiso  ? Al
   Al17       1.0     0.440099     0.448856     0.812945    Uiso  ? Al
   Al18       1.0     0.554119     0.545839     0.561457    Uiso  ? Al
   Al19       1.0     0.122761     0.756661     0.314671    Uiso  ? Al
   Al20       1.0     0.900872     0.866162     0.569145    Uiso  ? Al
   Al21       1.0     0.437289     0.759658     0.312139    Uiso  ? Al
   Al22       1.0     0.123064     0.759356     0.812928    Uiso  ? Al
   Al23       1.0     0.224304     0.866597     0.563719    Uiso  ? Al
   Al24       1.0     0.904572     0.847921     0.063222    Uiso  ? Al
   Al25       1.0     0.441378     0.760496     0.809425    Uiso  ? Al
   Al26       1.0     0.548860     0.868679     0.598348    Uiso  ? Al
   Hf1        1.0     0.786072     0.089093     0.844775    Uiso  ? Hf
   Hf2        1.0     0.776510     0.101226     0.300040    Uiso  ? Hf
   Hf3        1.0     0.551986     0.210753     0.592126    Uiso  ? Hf
   Hf4        1.0     0.110972     0.430814     0.846691    Uiso  ? Hf
   Hf5        1.0     0.774985     0.758103     0.338611    Uiso  ? Hf
   N1         1.0     0.233820     0.214222     0.317140    Uiso  ? N
   N2         1.0     0.106406     0.105796     0.110921    Uiso  ? N
   N3         1.0     0.898639     0.217751     0.868653    Uiso  ? N
   N4         1.0     0.797083     0.082876     0.629689    Uiso  ? N
   N5         1.0     0.548171     0.211336     0.378163    Uiso  ? N
   N6         1.0     0.433922     0.107419     0.058002    Uiso  ? N
   N7         1.0     0.225913     0.191310     0.819618    Uiso  ? N
   N8         1.0     0.107010     0.090452     0.616507    Uiso  ? N
   N9         1.0     0.877314     0.216909     0.380943    Uiso  ? N
   N10        1.0     0.771392     0.098483     0.084770    Uiso  ? N
   N11        1.0     0.535409     0.221686     0.843850    Uiso  ? N
   N12        1.0     0.426029     0.095285     0.577454    Uiso  ? N
   N13        1.0     0.219118     0.538845     0.372571    Uiso  ? N
   N14        1.0     0.109776     0.434219     0.101044    Uiso  ? N
   N15        1.0     0.873872     0.535457     0.881518    Uiso  ? N
   N16        1.0     0.778048     0.427769     0.621188    Uiso  ? N
   N17        1.0     0.558132     0.533791     0.373105    Uiso  ? N
   N18        1.0     0.437538     0.419416     0.129174    Uiso  ? N
   N19        1.0     0.235182     0.551115     0.880917    Uiso  ? N
   N20        1.0     0.108448     0.434509     0.627123    Uiso  ? N
   N21        1.0     0.903931     0.514468     0.374935    Uiso  ? N
   N22        1.0     0.790807     0.421357     0.130133    Uiso  ? N
   N23        1.0     0.557048     0.540748     0.859650    Uiso  ? N
   N24        1.0     0.428981     0.451882     0.622046    Uiso  ? N
   N25        1.0     0.228224     0.854839     0.379421    Uiso  ? N
   N26        1.0     0.106341     0.754390     0.131230    Uiso  ? N
   N27        1.0     0.913206     0.849527     0.876474    Uiso  ? N
   N28        1.0     0.782933     0.757421     0.590985    Uiso  ? N
   N29        1.0     0.537395     0.876242     0.377564    Uiso  ? N
   N30        1.0     0.444163     0.758790     0.133028    Uiso  ? N
   N31        1.0     0.223731     0.870100     0.856504    Uiso  ? N
   N32        1.0     0.112055     0.757432     0.623601    Uiso  ? N
   N33        1.0     0.903181     0.875598     0.378711    Uiso  ? N
   N34        1.0     0.791900     0.753935     0.129755    Uiso  ? N
   N35        1.0     0.543486     0.880572     0.821531    Uiso  ? N
   N36        1.0     0.440731     0.756195     0.618376    Uiso  ? N
