
#======================================================================
# CRYSTAL DATA
#----------------------------------------------------------------------
data_VESTA_phase_1

_chemical_name_common                  'Mg   Al   Hf   N                      '
_cell_length_a                         9.851177
_cell_length_b                         9.863988
_cell_length_c                         9.967447
_cell_angle_alpha                      89.939888
_cell_angle_beta                       89.398521
_cell_angle_gamma                      60.104866
_cell_volume                           839.622765
_space_group_name_H-M_alt              'P 1'
_space_group_IT_number                 1

loop_
_space_group_symop_operation_xyz
   'x, y, z'

loop_
   _atom_site_label
   _atom_site_occupancy
   _atom_site_fract_x
   _atom_site_fract_y
   _atom_site_fract_z
   _atom_site_adp_type
   _atom_site_U_iso_or_equiv
   _atom_site_type_symbol
   Mg1        1.0     0.117114     0.094814     0.368880    Uiso  ? Mg
   Mg2        1.0     0.567349     0.524893     0.120645    Uiso  ? Mg
   Mg3        1.0     0.211735     0.874912     0.087489    Uiso  ? Mg
   Mg4        1.0     0.772198     0.758298     0.881635    Uiso  ? Mg
   Mg5        1.0     0.551235     0.883991     0.113790    Uiso  ? Mg
   Al1        1.0     0.220722     0.212286     0.134346    Uiso  ? Al
   Al2        1.0     0.900048     0.204721     0.630229    Uiso  ? Al
   Al3        1.0     0.428372     0.094145     0.381103    Uiso  ? Al
   Al4        1.0     0.530163     0.217873     0.140852    Uiso  ? Al
   Al5        1.0     0.117954     0.090209     0.885324    Uiso  ? Al
   Al6        1.0     0.218549     0.191028     0.629733    Uiso  ? Al
   Al7        1.0     0.900174     0.222901     0.133280    Uiso  ? Al
   Al8        1.0     0.436877     0.093307     0.886482    Uiso  ? Al
   Al9        1.0     0.114888     0.419322     0.390517    Uiso  ? Al
   Al10       1.0     0.222562     0.535942     0.097957    Uiso  ? Al
   Al11       1.0     0.778500     0.430040     0.881550    Uiso  ? Al
   Al12       1.0     0.878693     0.541184     0.628515    Uiso  ? Al
   Al13       1.0     0.440592     0.446053     0.383336    Uiso  ? Al
   Al14       1.0     0.216050     0.549688     0.583939    Uiso  ? Al
   Al15       1.0     0.770178     0.431184     0.387675    Uiso  ? Al
   Al16       1.0     0.898251     0.527227     0.133604    Uiso  ? Al
   Al17       1.0     0.443382     0.435533     0.886517    Uiso  ? Al
   Al18       1.0     0.552444     0.549591     0.640629    Uiso  ? Al
   Al19       1.0     0.124341     0.748649     0.321459    Uiso  ? Al
   Al20       1.0     0.898635     0.863920     0.570632    Uiso  ? Al
   Al21       1.0     0.438184     0.759475     0.300920    Uiso  ? Al
   Al22       1.0     0.122329     0.768445     0.814290    Uiso  ? Al
   Al23       1.0     0.233307     0.864718     0.561042    Uiso  ? Al
   Al24       1.0     0.908083     0.847175     0.079545    Uiso  ? Al
   Al25       1.0     0.441419     0.762505     0.894855    Uiso  ? Al
   Al26       1.0     0.546692     0.866835     0.642951    Uiso  ? Al
   Hf1        1.0     0.776509     0.100526     0.891313    Uiso  ? Hf
   Hf2        1.0     0.780918     0.097671     0.347326    Uiso  ? Hf
   Hf3        1.0     0.547539     0.209244     0.616399    Uiso  ? Hf
   Hf4        1.0     0.111863     0.429064     0.859174    Uiso  ? Hf
   Hf5        1.0     0.769856     0.756332     0.352961    Uiso  ? Hf
   N1         1.0     0.226424     0.218273     0.323165    Uiso  ? N
   N2         1.0     0.105920     0.116155     0.077847    Uiso  ? N
   N3         1.0     0.898109     0.209522     0.825080    Uiso  ? N
   N4         1.0     0.789714     0.091494     0.580016    Uiso  ? N
   N5         1.0     0.533921     0.218714     0.341477    Uiso  ? N
   N6         1.0     0.430937     0.117056     0.072835    Uiso  ? N
   N7         1.0     0.229791     0.189354     0.820387    Uiso  ? N
   N8         1.0     0.110462     0.090819     0.580021    Uiso  ? N
   N9         1.0     0.884156     0.226204     0.321094    Uiso  ? N
   N10        1.0     0.774129     0.096244     0.109392    Uiso  ? N
   N11        1.0     0.539878     0.213167     0.826626    Uiso  ? N
   N12        1.0     0.433591     0.084437     0.574100    Uiso  ? N
   N13        1.0     0.219437     0.537763     0.374997    Uiso  ? N
   N14        1.0     0.111284     0.428716     0.074420    Uiso  ? N
   N15        1.0     0.877538     0.535945     0.816353    Uiso  ? N
   N16        1.0     0.775298     0.425439     0.579717    Uiso  ? N
   N17        1.0     0.560234     0.537170     0.330839    Uiso  ? N
   N18        1.0     0.438316     0.419270     0.077098    Uiso  ? N
   N19        1.0     0.231956     0.549756     0.842648    Uiso  ? N
   N20        1.0     0.109598     0.423539     0.591933    Uiso  ? N
   N21        1.0     0.901657     0.513819     0.330709    Uiso  ? N
   N22        1.0     0.797607     0.422952     0.067571    Uiso  ? N
   N23        1.0     0.560583     0.533335     0.837169    Uiso  ? N
   N24        1.0     0.439979     0.446335     0.578937    Uiso  ? N
   N25        1.0     0.231299     0.852176     0.364890    Uiso  ? N
   N26        1.0     0.110304     0.744896     0.135131    Uiso  ? N
   N27        1.0     0.910261     0.863684     0.884045    Uiso  ? N
   N28        1.0     0.772323     0.762333     0.580566    Uiso  ? N
   N29        1.0     0.532479     0.886695     0.326758    Uiso  ? N
   N30        1.0     0.445968     0.756997     0.095506    Uiso  ? N
   N31        1.0     0.221314     0.873428     0.871278    Uiso  ? N
   N32        1.0     0.108453     0.767159     0.622113    Uiso  ? N
   N33        1.0     0.910839     0.858362     0.374792    Uiso  ? N
   N34        1.0     0.794513     0.748196     0.116276    Uiso  ? N
   N35        1.0     0.542132     0.881793     0.838132    Uiso  ? N
   N36        1.0     0.444246     0.759479     0.606087    Uiso  ? N
