
#======================================================================
# CRYSTAL DATA
#----------------------------------------------------------------------
data_VESTA_phase_1

_chemical_name_common                  'Mg   Al   Hf   N                      '
_cell_length_a                         9.811555
_cell_length_b                         9.826136
_cell_length_c                         10.162870
_cell_angle_alpha                      89.837524
_cell_angle_beta                       89.669136
_cell_angle_gamma                      59.948391
_cell_volume                           848.075041
_space_group_name_H-M_alt              'P 1'
_space_group_IT_number                 1

loop_
_space_group_symop_operation_xyz
   'x, y, z'

loop_
   _atom_site_label
   _atom_site_occupancy
   _atom_site_fract_x
   _atom_site_fract_y
   _atom_site_fract_z
   _atom_site_adp_type
   _atom_site_U_iso_or_equiv
   _atom_site_type_symbol
   Mg1        1.0     0.121942     0.090279     0.374123    Uiso  ? Mg
   Mg2        1.0     0.552683     0.537410     0.075520    Uiso  ? Mg
   Mg3        1.0     0.223675     0.867273     0.075216    Uiso  ? Mg
   Mg4        1.0     0.768145     0.759453     0.888969    Uiso  ? Mg
   Mg5        1.0     0.543798     0.879325     0.121485    Uiso  ? Mg
   Al1        1.0     0.221240     0.211569     0.132847    Uiso  ? Al
   Al2        1.0     0.899133     0.205388     0.633750    Uiso  ? Al
   Al3        1.0     0.428295     0.092599     0.385552    Uiso  ? Al
   Al4        1.0     0.534450     0.209451     0.144130    Uiso  ? Al
   Al5        1.0     0.115940     0.092510     0.885295    Uiso  ? Al
   Al6        1.0     0.216963     0.194238     0.633667    Uiso  ? Al
   Al7        1.0     0.901356     0.222118     0.133541    Uiso  ? Al
   Al8        1.0     0.439127     0.092198     0.884268    Uiso  ? Al
   Al9        1.0     0.117348     0.417142     0.389590    Uiso  ? Al
   Al10       1.0     0.228423     0.541679     0.073567    Uiso  ? Al
   Al11       1.0     0.778131     0.432122     0.882564    Uiso  ? Al
   Al12       1.0     0.881095     0.540584     0.631205    Uiso  ? Al
   Al13       1.0     0.433544     0.442456     0.323638    Uiso  ? Al
   Al14       1.0     0.216077     0.550872     0.571030    Uiso  ? Al
   Al15       1.0     0.781652     0.423950     0.387074    Uiso  ? Al
   Al16       1.0     0.898731     0.527041     0.134067    Uiso  ? Al
   Al17       1.0     0.441364     0.447499     0.814701    Uiso  ? Al
   Al18       1.0     0.550009     0.550465     0.569683    Uiso  ? Al
   Al19       1.0     0.128554     0.747125     0.319492    Uiso  ? Al
   Al20       1.0     0.900389     0.861624     0.569599    Uiso  ? Al
   Al21       1.0     0.435636     0.756632     0.312367    Uiso  ? Al
   Al22       1.0     0.116087     0.769681     0.821004    Uiso  ? Al
   Al23       1.0     0.225514     0.867163     0.571211    Uiso  ? Al
   Al24       1.0     0.906403     0.850465     0.083112    Uiso  ? Al
   Al25       1.0     0.438998     0.761427     0.821689    Uiso  ? Al
   Al26       1.0     0.554311     0.870022     0.635739    Uiso  ? Al
   Hf1        1.0     0.770425     0.106485     0.896725    Uiso  ? Hf
   Hf2        1.0     0.785736     0.095344     0.351275    Uiso  ? Hf
   Hf3        1.0     0.548771     0.208733     0.607645    Uiso  ? Hf
   Hf4        1.0     0.112091     0.429092     0.864653    Uiso  ? Hf
   Hf5        1.0     0.773216     0.755123     0.350925    Uiso  ? Hf
   N1         1.0     0.228474     0.216189     0.319660    Uiso  ? N
   N2         1.0     0.106753     0.113906     0.073333    Uiso  ? N
   N3         1.0     0.894770     0.211057     0.824750    Uiso  ? N
   N4         1.0     0.793151     0.090677     0.576319    Uiso  ? N
   N5         1.0     0.538795     0.210656     0.353967    Uiso  ? N
   N6         1.0     0.433858     0.113608     0.069130    Uiso  ? N
   N7         1.0     0.228901     0.190797     0.820822    Uiso  ? N
   N8         1.0     0.109657     0.092941     0.583762    Uiso  ? N
   N9         1.0     0.889886     0.222899     0.317593    Uiso  ? N
   N10        1.0     0.771256     0.097507     0.112182    Uiso  ? N
   N11        1.0     0.539451     0.213119     0.820073    Uiso  ? N
   N12        1.0     0.430349     0.086431     0.574521    Uiso  ? N
   N13        1.0     0.222144     0.537547     0.384809    Uiso  ? N
   N14        1.0     0.111380     0.429271     0.072432    Uiso  ? N
   N15        1.0     0.878323     0.537420     0.816214    Uiso  ? N
   N16        1.0     0.782129     0.423153     0.576769    Uiso  ? N
   N17        1.0     0.554950     0.537026     0.379187    Uiso  ? N
   N18        1.0     0.432785     0.424338     0.138653    Uiso  ? N
   N19        1.0     0.234040     0.554213     0.878279    Uiso  ? N
   N20        1.0     0.110911     0.423720     0.591357    Uiso  ? N
   N21        1.0     0.904735     0.511822     0.327650    Uiso  ? N
   N22        1.0     0.796974     0.423533     0.068260    Uiso  ? N
   N23        1.0     0.558383     0.538277     0.861963    Uiso  ? N
   N24        1.0     0.430164     0.452753     0.623813    Uiso  ? N
   N25        1.0     0.231652     0.847274     0.384566    Uiso  ? N
   N26        1.0     0.111290     0.746914     0.136942    Uiso  ? N
   N27        1.0     0.906021     0.867735     0.890847    Uiso  ? N
   N28        1.0     0.774802     0.759833     0.576743    Uiso  ? N
   N29        1.0     0.534333     0.883417     0.340554    Uiso  ? N
   N30        1.0     0.440797     0.754187     0.133425    Uiso  ? N
   N31        1.0     0.222350     0.874104     0.864484    Uiso  ? N
   N32        1.0     0.106849     0.761793     0.632991    Uiso  ? N
   N33        1.0     0.915707     0.855305     0.377296    Uiso  ? N
   N34        1.0     0.791281     0.751008     0.119093    Uiso  ? N
   N35        1.0     0.543618     0.883934     0.827066    Uiso  ? N
   N36        1.0     0.442190     0.759475     0.627878    Uiso  ? N
