
#======================================================================
# CRYSTAL DATA
#----------------------------------------------------------------------
data_VESTA_phase_1

_chemical_name_common                  'Mg   Al   Hf   N                      '
_cell_length_a                         9.851511
_cell_length_b                         9.863561
_cell_length_c                         9.970387
_cell_angle_alpha                      89.934113
_cell_angle_beta                       89.393257
_cell_angle_gamma                      60.101151
_cell_volume                           839.830639
_space_group_name_H-M_alt              'P 1'
_space_group_IT_number                 1

loop_
_space_group_symop_operation_xyz
   'x, y, z'

loop_
   _atom_site_label
   _atom_site_occupancy
   _atom_site_fract_x
   _atom_site_fract_y
   _atom_site_fract_z
   _atom_site_adp_type
   _atom_site_U_iso_or_equiv
   _atom_site_type_symbol
   Mg1        1.0     0.117150     0.094709     0.368849    Uiso  ? Mg
   Mg2        1.0     0.567405     0.524876     0.120832    Uiso  ? Mg
   Mg3        1.0     0.211699     0.874974     0.087557    Uiso  ? Mg
   Mg4        1.0     0.772166     0.758356     0.881767    Uiso  ? Mg
   Mg5        1.0     0.551200     0.884005     0.113869    Uiso  ? Mg
   Al1        1.0     0.220630     0.212551     0.134279    Uiso  ? Al
   Al2        1.0     0.900051     0.204682     0.630250    Uiso  ? Al
   Al3        1.0     0.428361     0.094138     0.381138    Uiso  ? Al
   Al4        1.0     0.529987     0.218016     0.141015    Uiso  ? Al
   Al5        1.0     0.117947     0.090203     0.885423    Uiso  ? Al
   Al6        1.0     0.218632     0.190837     0.629736    Uiso  ? Al
   Al7        1.0     0.900189     0.222910     0.133323    Uiso  ? Al
   Al8        1.0     0.436887     0.093271     0.886558    Uiso  ? Al
   Al9        1.0     0.114836     0.419312     0.390309    Uiso  ? Al
   Al10       1.0     0.222290     0.537199     0.091205    Uiso  ? Al
   Al11       1.0     0.778471     0.430059     0.881629    Uiso  ? Al
   Al12       1.0     0.878543     0.541263     0.628527    Uiso  ? Al
   Al13       1.0     0.440564     0.446004     0.383220    Uiso  ? Al
   Al14       1.0     0.215670     0.550081     0.581045    Uiso  ? Al
   Al15       1.0     0.770196     0.431152     0.387694    Uiso  ? Al
   Al16       1.0     0.898437     0.527163     0.133520    Uiso  ? Al
   Al17       1.0     0.444402     0.435003     0.886627    Uiso  ? Al
   Al18       1.0     0.552446     0.549617     0.640606    Uiso  ? Al
   Al19       1.0     0.124614     0.748012     0.320964    Uiso  ? Al
   Al20       1.0     0.898768     0.863802     0.570709    Uiso  ? Al
   Al21       1.0     0.438129     0.759485     0.300998    Uiso  ? Al
   Al22       1.0     0.122311     0.768461     0.814724    Uiso  ? Al
   Al23       1.0     0.233325     0.864592     0.561099    Uiso  ? Al
   Al24       1.0     0.907950     0.847362     0.079709    Uiso  ? Al
   Al25       1.0     0.441410     0.762543     0.894921    Uiso  ? Al
   Al26       1.0     0.546705     0.866830     0.642979    Uiso  ? Al
   Hf1        1.0     0.776467     0.100593     0.891472    Uiso  ? Hf
   Hf2        1.0     0.781009     0.097576     0.347335    Uiso  ? Hf
   Hf3        1.0     0.547555     0.209226     0.616366    Uiso  ? Hf
   Hf4        1.0     0.111588     0.428827     0.858621    Uiso  ? Hf
   Hf5        1.0     0.769900     0.756333     0.352936    Uiso  ? Hf
   N1         1.0     0.226425     0.218280     0.323155    Uiso  ? N
   N2         1.0     0.105931     0.116163     0.077893    Uiso  ? N
   N3         1.0     0.898109     0.209533     0.825081    Uiso  ? N
   N4         1.0     0.789792     0.091417     0.580004    Uiso  ? N
   N5         1.0     0.533915     0.218733     0.341627    Uiso  ? N
   N6         1.0     0.430945     0.117070     0.072851    Uiso  ? N
   N7         1.0     0.229884     0.189136     0.820335    Uiso  ? N
   N8         1.0     0.110463     0.090733     0.579974    Uiso  ? N
   N9         1.0     0.884166     0.226182     0.321102    Uiso  ? N
   N10        1.0     0.774212     0.096124     0.109514    Uiso  ? N
   N11        1.0     0.539870     0.213140     0.826538    Uiso  ? N
   N12        1.0     0.433595     0.084424     0.574087    Uiso  ? N
   N13        1.0     0.219138     0.538108     0.376938    Uiso  ? N
   N14        1.0     0.111130     0.428543     0.073957    Uiso  ? N
   N15        1.0     0.877272     0.536085     0.816315    Uiso  ? N
   N16        1.0     0.775315     0.425411     0.579679    Uiso  ? N
   N17        1.0     0.560209     0.537171     0.330976    Uiso  ? N
   N18        1.0     0.438948     0.419024     0.077194    Uiso  ? N
   N19        1.0     0.231405     0.550606     0.848243    Uiso  ? N
   N20        1.0     0.109649     0.423549     0.592454    Uiso  ? N
   N21        1.0     0.901678     0.513796     0.330708    Uiso  ? N
   N22        1.0     0.797582     0.422977     0.067595    Uiso  ? N
   N23        1.0     0.560677     0.533410     0.837026    Uiso  ? N
   N24        1.0     0.439762     0.446447     0.579422    Uiso  ? N
   N25        1.0     0.231206     0.851961     0.364929    Uiso  ? N
   N26        1.0     0.110355     0.744682     0.135011    Uiso  ? N
   N27        1.0     0.910125     0.863829     0.884149    Uiso  ? N
   N28        1.0     0.772324     0.762335     0.580528    Uiso  ? N
   N29        1.0     0.532472     0.886684     0.326780    Uiso  ? N
   N30        1.0     0.445951     0.756993     0.095541    Uiso  ? N
   N31        1.0     0.221338     0.873511     0.871304    Uiso  ? N
   N32        1.0     0.108685     0.766572     0.622816    Uiso  ? N
   N33        1.0     0.911054     0.858214     0.374858    Uiso  ? N
   N34        1.0     0.794483     0.748225     0.116338    Uiso  ? N
   N35        1.0     0.542144     0.881782     0.838117    Uiso  ? N
   N36        1.0     0.444255     0.759508     0.606048    Uiso  ? N
