
#======================================================================
# CRYSTAL DATA
#----------------------------------------------------------------------
data_VESTA_phase_1

_chemical_name_common                  'Mg   Al   Hf   N                      '
_cell_length_a                         9.766840
_cell_length_b                         9.771699
_cell_length_c                         10.221121
_cell_angle_alpha                      90.159676
_cell_angle_beta                       89.572823
_cell_angle_gamma                      60.163754
_cell_volume                           846.142127
_space_group_name_H-M_alt              'P 1'
_space_group_IT_number                 1

loop_
_space_group_symop_operation_xyz
   'x, y, z'

loop_
   _atom_site_label
   _atom_site_occupancy
   _atom_site_fract_x
   _atom_site_fract_y
   _atom_site_fract_z
   _atom_site_adp_type
   _atom_site_U_iso_or_equiv
   _atom_site_type_symbol
   Mg1        1.0     0.118255     0.093507     0.386598    Uiso  ? Mg
   Mg2        1.0     0.558494     0.540738     0.141035    Uiso  ? Mg
   Mg3        1.0     0.225612     0.868041     0.085862    Uiso  ? Mg
   Mg4        1.0     0.762588     0.759562     0.900071    Uiso  ? Mg
   Mg5        1.0     0.540753     0.878336     0.138713    Uiso  ? Mg
   Al1        1.0     0.222392     0.206758     0.143772    Uiso  ? Al
   Al2        1.0     0.896494     0.207188     0.642542    Uiso  ? Al
   Al3        1.0     0.428878     0.095984     0.390362    Uiso  ? Al
   Al4        1.0     0.531904     0.216906     0.146942    Uiso  ? Al
   Al5        1.0     0.115106     0.093287     0.889526    Uiso  ? Al
   Al6        1.0     0.216385     0.199816     0.640755    Uiso  ? Al
   Al7        1.0     0.900616     0.220225     0.141341    Uiso  ? Al
   Al8        1.0     0.437427     0.090115     0.895072    Uiso  ? Al
   Al9        1.0     0.119744     0.419146     0.395558    Uiso  ? Al
   Al10       1.0     0.227478     0.529918     0.149136    Uiso  ? Al
   Al11       1.0     0.773010     0.433868     0.891313    Uiso  ? Al
   Al12       1.0     0.883136     0.541251     0.638454    Uiso  ? Al
   Al13       1.0     0.437655     0.442058     0.391897    Uiso  ? Al
   Al14       1.0     0.218611     0.544106     0.637727    Uiso  ? Al
   Al15       1.0     0.776107     0.426851     0.397842    Uiso  ? Al
   Al16       1.0     0.895620     0.526327     0.145838    Uiso  ? Al
   Al17       1.0     0.439522     0.441693     0.899019    Uiso  ? Al
   Al18       1.0     0.556070     0.543574     0.643363    Uiso  ? Al
   Al19       1.0     0.127039     0.753496     0.327290    Uiso  ? Al
   Al20       1.0     0.897658     0.863180     0.573365    Uiso  ? Al
   Al21       1.0     0.446131     0.753550     0.399720    Uiso  ? Al
   Al22       1.0     0.112642     0.772969     0.824091    Uiso  ? Al
   Al23       1.0     0.219079     0.871781     0.585767    Uiso  ? Al
   Al24       1.0     0.909648     0.848082     0.091371    Uiso  ? Al
   Al25       1.0     0.444309     0.763378     0.889055    Uiso  ? Al
   Al26       1.0     0.551990     0.868892     0.643220    Uiso  ? Al
   Hf1        1.0     0.773929     0.102519     0.908301    Uiso  ? Hf
   Hf2        1.0     0.780714     0.098702     0.357222    Uiso  ? Hf
   Hf3        1.0     0.548453     0.209447     0.631947    Uiso  ? Hf
   Hf4        1.0     0.109455     0.431567     0.886594    Uiso  ? Hf
   Hf5        1.0     0.774234     0.754195     0.358463    Uiso  ? Hf
   N1         1.0     0.227140     0.214164     0.328483    Uiso  ? N
   N2         1.0     0.106135     0.113772     0.078052    Uiso  ? N
   N3         1.0     0.892930     0.211254     0.832374    Uiso  ? N
   N4         1.0     0.788274     0.093573     0.581803    Uiso  ? N
   N5         1.0     0.534060     0.216816     0.342212    Uiso  ? N
   N6         1.0     0.434127     0.110972     0.078927    Uiso  ? N
   N7         1.0     0.227208     0.196359     0.828089    Uiso  ? N
   N8         1.0     0.107595     0.097601     0.593599    Uiso  ? N
   N9         1.0     0.888472     0.224029     0.325346    Uiso  ? N
   N10        1.0     0.775294     0.096213     0.119726    Uiso  ? N
   N11        1.0     0.539824     0.213891     0.836679    Uiso  ? N
   N12        1.0     0.432199     0.089108     0.579151    Uiso  ? N
   N13        1.0     0.226265     0.529155     0.340749    Uiso  ? N
   N14        1.0     0.111853     0.429879     0.090570    Uiso  ? N
   N15        1.0     0.879362     0.535731     0.824079    Uiso  ? N
   N16        1.0     0.778160     0.425009     0.585766    Uiso  ? N
   N17        1.0     0.560978     0.536350     0.348129    Uiso  ? N
   N18        1.0     0.437046     0.421780     0.082869    Uiso  ? N
   N19        1.0     0.232763     0.544587     0.828580    Uiso  ? N
   N20        1.0     0.111709     0.427279     0.590269    Uiso  ? N
   N21        1.0     0.903900     0.511262     0.337245    Uiso  ? N
   N22        1.0     0.793755     0.423039     0.074795    Uiso  ? N
   N23        1.0     0.558395     0.533085     0.830664    Uiso  ? N
   N24        1.0     0.433596     0.446507     0.580630    Uiso  ? N
   N25        1.0     0.228272     0.852010     0.393391    Uiso  ? N
   N26        1.0     0.113911     0.750855     0.143450    Uiso  ? N
   N27        1.0     0.906780     0.862886     0.900351    Uiso  ? N
   N28        1.0     0.773875     0.759907     0.582201    Uiso  ? N
   N29        1.0     0.531658     0.882319     0.344595    Uiso  ? N
   N30        1.0     0.456471     0.752584     0.066464    Uiso  ? N
   N31        1.0     0.221048     0.876309     0.859149    Uiso  ? N
   N32        1.0     0.101548     0.767659     0.635869    Uiso  ? N
   N33        1.0     0.914415     0.857369     0.383556    Uiso  ? N
   N34        1.0     0.792465     0.750406     0.131199    Uiso  ? N
   N35        1.0     0.541325     0.884551     0.827366    Uiso  ? N
   N36        1.0     0.449959     0.756594     0.591430    Uiso  ? N
