
#======================================================================
# CRYSTAL DATA
#----------------------------------------------------------------------
data_VESTA_phase_1

_chemical_name_common                  'Mg   Al   Hf   N                      '
_cell_length_a                         9.783165
_cell_length_b                         9.790828
_cell_length_c                         10.116782
_cell_angle_alpha                      90.127876
_cell_angle_beta                       89.996796
_cell_angle_gamma                      60.063026
_cell_volume                           839.741874
_space_group_name_H-M_alt              'P 1'
_space_group_IT_number                 1

loop_
_space_group_symop_operation_xyz
   'x, y, z'

loop_
   _atom_site_label
   _atom_site_occupancy
   _atom_site_fract_x
   _atom_site_fract_y
   _atom_site_fract_z
   _atom_site_adp_type
   _atom_site_U_iso_or_equiv
   _atom_site_type_symbol
   Mg1        1.0     0.120250     0.089902     0.389088    Uiso  ? Mg
   Mg2        1.0     0.557085     0.542016     0.140552    Uiso  ? Mg
   Mg3        1.0     0.231365     0.870918     0.134413    Uiso  ? Mg
   Mg4        1.0     0.766503     0.759773     0.904391    Uiso  ? Mg
   Mg5        1.0     0.543364     0.875098     0.137499    Uiso  ? Mg
   Al1        1.0     0.222121     0.205840     0.144107    Uiso  ? Al
   Al2        1.0     0.897861     0.208451     0.644178    Uiso  ? Al
   Al3        1.0     0.429719     0.095743     0.389200    Uiso  ? Al
   Al4        1.0     0.536229     0.213883     0.146278    Uiso  ? Al
   Al5        1.0     0.117723     0.090066     0.892638    Uiso  ? Al
   Al6        1.0     0.216316     0.200599     0.639847    Uiso  ? Al
   Al7        1.0     0.899990     0.217078     0.140829    Uiso  ? Al
   Al8        1.0     0.438268     0.088785     0.896514    Uiso  ? Al
   Al9        1.0     0.119017     0.419679     0.394352    Uiso  ? Al
   Al10       1.0     0.225699     0.531246     0.142230    Uiso  ? Al
   Al11       1.0     0.773139     0.433221     0.892374    Uiso  ? Al
   Al12       1.0     0.884502     0.539402     0.639673    Uiso  ? Al
   Al13       1.0     0.438233     0.442347     0.388823    Uiso  ? Al
   Al14       1.0     0.218761     0.547636     0.635654    Uiso  ? Al
   Al15       1.0     0.775512     0.427681     0.395725    Uiso  ? Al
   Al16       1.0     0.893510     0.528393     0.144431    Uiso  ? Al
   Al17       1.0     0.442298     0.439725     0.899600    Uiso  ? Al
   Al18       1.0     0.555156     0.544479     0.641141    Uiso  ? Al
   Al19       1.0     0.128419     0.751187     0.334901    Uiso  ? Al
   Al20       1.0     0.892912     0.865097     0.642463    Uiso  ? Al
   Al21       1.0     0.439504     0.758444     0.397747    Uiso  ? Al
   Al22       1.0     0.118551     0.764607     0.849615    Uiso  ? Al
   Al23       1.0     0.221383     0.876542     0.636454    Uiso  ? Al
   Al24       1.0     0.899679     0.856439     0.139011    Uiso  ? Al
   Al25       1.0     0.443111     0.764214     0.890357    Uiso  ? Al
   Al26       1.0     0.550369     0.870039     0.643921    Uiso  ? Al
   Hf1        1.0     0.776597     0.097151     0.901818    Uiso  ? Hf
   Hf2        1.0     0.782862     0.098555     0.372418    Uiso  ? Hf
   Hf3        1.0     0.545791     0.211140     0.631219    Uiso  ? Hf
   Hf4        1.0     0.110744     0.429000     0.885273    Uiso  ? Hf
   Hf5        1.0     0.774332     0.755455     0.370443    Uiso  ? Hf
   N1         1.0     0.226312     0.214491     0.330533    Uiso  ? N
   N2         1.0     0.107384     0.109447     0.079146    Uiso  ? N
   N3         1.0     0.894304     0.210956     0.834273    Uiso  ? N
   N4         1.0     0.789561     0.090305     0.588359    Uiso  ? N
   N5         1.0     0.537064     0.215641     0.344515    Uiso  ? N
   N6         1.0     0.434334     0.110122     0.081570    Uiso  ? N
   N7         1.0     0.227993     0.193809     0.829051    Uiso  ? N
   N8         1.0     0.108506     0.096324     0.594000    Uiso  ? N
   N9         1.0     0.887493     0.223341     0.326751    Uiso  ? N
   N10        1.0     0.776220     0.093166     0.112672    Uiso  ? N
   N11        1.0     0.539353     0.214519     0.837390    Uiso  ? N
   N12        1.0     0.431519     0.089365     0.580066    Uiso  ? N
   N13        1.0     0.224577     0.530731     0.336690    Uiso  ? N
   N14        1.0     0.111150     0.426856     0.090332    Uiso  ? N
   N15        1.0     0.879525     0.534783     0.825805    Uiso  ? N
   N16        1.0     0.778164     0.425694     0.585892    Uiso  ? N
   N17        1.0     0.559617     0.538559     0.349627    Uiso  ? N
   N18        1.0     0.438388     0.420062     0.084438    Uiso  ? N
   N19        1.0     0.234478     0.542960     0.829134    Uiso  ? N
   N20        1.0     0.112409     0.427568     0.591370    Uiso  ? N
   N21        1.0     0.902314     0.514092     0.338085    Uiso  ? N
   N22        1.0     0.792651     0.422083     0.077149    Uiso  ? N
   N23        1.0     0.557942     0.533816     0.830543    Uiso  ? N
   N24        1.0     0.433847     0.446604     0.579514    Uiso  ? N
   N25        1.0     0.232791     0.857720     0.346396    Uiso  ? N
   N26        1.0     0.112334     0.747627     0.110846    Uiso  ? N
   N27        1.0     0.895512     0.868843     0.838555    Uiso  ? N
   N28        1.0     0.776192     0.762110     0.586509    Uiso  ? N
   N29        1.0     0.534517     0.881650     0.346536    Uiso  ? N
   N30        1.0     0.448879     0.756125     0.067077    Uiso  ? N
   N31        1.0     0.223699     0.877862     0.831205    Uiso  ? N
   N32        1.0     0.108923     0.764302     0.617692    Uiso  ? N
   N33        1.0     0.908369     0.861754     0.336218    Uiso  ? N
   N34        1.0     0.789576     0.749340     0.119974    Uiso  ? N
   N35        1.0     0.541917     0.883221     0.829308    Uiso  ? N
   N36        1.0     0.445036     0.760229     0.589933    Uiso  ? N
