
#======================================================================
# CRYSTAL DATA
#----------------------------------------------------------------------
data_VESTA_phase_1

_chemical_name_common                  'Mg   Al   Hf   N '
_cell_length_a                         9.810894
_cell_length_b                         9.834356
_cell_length_c                         10.053314
_cell_angle_alpha                      90.025032
_cell_angle_beta                       89.499794
_cell_angle_gamma                      60.155907
_cell_volume                           841.301000
_space_group_name_H-M_alt              'P 1'
_space_group_IT_number                 1

loop_
_space_group_symop_operation_xyz
   'x, y, z'

loop_
   _atom_site_label
   _atom_site_occupancy
   _atom_site_fract_x
   _atom_site_fract_y
   _atom_site_fract_z
   _atom_site_adp_type
   _atom_site_U_iso_or_equiv
   _atom_site_type_symbol
   Mg1        1.0     0.116529     0.095731     0.371799    Uiso  ? Mg
   Mg2        1.0     0.566203     0.524124     0.120901    Uiso  ? Mg
   Mg3        1.0     0.211569     0.875124     0.084191    Uiso  ? Mg
   Mg4        1.0     0.771838     0.756960     0.882089    Uiso  ? Mg
   Mg5        1.0     0.551467     0.884360     0.115367    Uiso  ? Mg
   Al1        1.0     0.221356     0.210061     0.136190    Uiso  ? Al
   Al2        1.0     0.899784     0.204341     0.630571    Uiso  ? Al
   Al3        1.0     0.428766     0.093947     0.381791    Uiso  ? Al
   Al4        1.0     0.530283     0.218141     0.139989    Uiso  ? Al
   Al5        1.0     0.117006     0.091551     0.884434    Uiso  ? Al
   Al6        1.0     0.217557     0.195193     0.629779    Uiso  ? Al
   Al7        1.0     0.899728     0.222515     0.133184    Uiso  ? Al
   Al8        1.0     0.436509     0.093665     0.886026    Uiso  ? Al
   Al9        1.0     0.118718     0.420583     0.388640    Uiso  ? Al
   Al10       1.0     0.225394     0.529638     0.139512    Uiso  ? Al
   Al11       1.0     0.778074     0.429690     0.881131    Uiso  ? Al
   Al12       1.0     0.882703     0.539768     0.628170    Uiso  ? Al
   Al13       1.0     0.437931     0.447208     0.382798    Uiso  ? Al
   Al14       1.0     0.220340     0.545852     0.626219    Uiso  ? Al
   Al15       1.0     0.770503     0.430733     0.388139    Uiso  ? Al
   Al16       1.0     0.896556     0.527423     0.136203    Uiso  ? Al
   Al17       1.0     0.438977     0.437762     0.888445    Uiso  ? Al
   Al18       1.0     0.552375     0.549497     0.639572    Uiso  ? Al
   Al19       1.0     0.123116     0.752658     0.318710    Uiso  ? Al
   Al20       1.0     0.899448     0.863125     0.568896    Uiso  ? Al
   Al21       1.0     0.437835     0.759406     0.300192    Uiso  ? Al
   Al22       1.0     0.118654     0.773100     0.814668    Uiso  ? Al
   Al23       1.0     0.233525     0.864435     0.560810    Uiso  ? Al
   Al24       1.0     0.908823     0.846136     0.078621    Uiso  ? Al
   Al25       1.0     0.442269     0.762171     0.894968    Uiso  ? Al
   Al26       1.0     0.547173     0.866710     0.642957    Uiso  ? Al
   Hf1        1.0     0.774324     0.101781     0.893364    Uiso  ? Hf
   Hf2        1.0     0.781141     0.096960     0.346875    Uiso  ? Hf
   Hf3        1.0     0.547978     0.209742     0.616028    Uiso  ? Hf
   Hf4        1.0     0.111947     0.429452     0.872757    Uiso  ? Hf
   Hf5        1.0     0.769728     0.755495     0.354359    Uiso  ? Hf
   N1         1.0     0.226847     0.216832     0.323032    Uiso  ? N
   N2         1.0     0.105216     0.116961     0.075262    Uiso  ? N
   N3         1.0     0.896795     0.209007     0.823979    Uiso  ? N
   N4         1.0     0.789801     0.091613     0.576795    Uiso  ? N
   N5         1.0     0.534425     0.217905     0.339878    Uiso  ? N
   N6         1.0     0.430830     0.116762     0.071163    Uiso  ? N
   N7         1.0     0.227705     0.193213     0.819740    Uiso  ? N
   N8         1.0     0.110795     0.092033     0.580840    Uiso  ? N
   N9         1.0     0.884413     0.226160     0.319502    Uiso  ? N
   N10        1.0     0.773513     0.096868     0.109099    Uiso  ? N
   N11        1.0     0.538751     0.214297     0.824785    Uiso  ? N
   N12        1.0     0.434050     0.084782     0.573813    Uiso  ? N
   N13        1.0     0.225683     0.530108     0.334985    Uiso  ? N
   N14        1.0     0.111678     0.429689     0.080558    Uiso  ? N
   N15        1.0     0.881478     0.532926     0.815458    Uiso  ? N
   N16        1.0     0.775927     0.425148     0.579275    Uiso  ? N
   N17        1.0     0.560309     0.536696     0.329895    Uiso  ? N
   N18        1.0     0.434172     0.420283     0.074412    Uiso  ? N
   N19        1.0     0.232916     0.546075     0.819691    Uiso  ? N
   N20        1.0     0.112785     0.426586     0.584943    Uiso  ? N
   N21        1.0     0.902096     0.513375     0.330823    Uiso  ? N
   N22        1.0     0.797137     0.422754     0.066008    Uiso  ? N
   N23        1.0     0.559086     0.533257     0.835638    Uiso  ? N
   N24        1.0     0.435692     0.448239     0.573922    Uiso  ? N
   N25        1.0     0.231679     0.852566     0.366855    Uiso  ? N
   N26        1.0     0.110028     0.747735     0.132759    Uiso  ? N
   N27        1.0     0.908755     0.864059     0.884534    Uiso  ? N
   N28        1.0     0.772691     0.761600     0.580191    Uiso  ? N
   N29        1.0     0.532151     0.886794     0.326197    Uiso  ? N
   N30        1.0     0.446353     0.756831     0.094749    Uiso  ? N
   N31        1.0     0.221801     0.873785     0.870869    Uiso  ? N
   N32        1.0     0.108024     0.768610     0.622088    Uiso  ? N
   N33        1.0     0.911885     0.856658     0.375559    Uiso  ? N
   N34        1.0     0.794270     0.747920     0.116461    Uiso  ? N
   N35        1.0     0.541880     0.881971     0.836622    Uiso  ? N
   N36        1.0     0.444592     0.759249     0.605662    Uiso  ? N
