
#======================================================================
# CRYSTAL DATA
#----------------------------------------------------------------------
data_VESTA_phase_1

_chemical_name_common                  'Mg   Al   Hf   N                      '
_cell_length_a                         9.770771
_cell_length_b                         9.771771
_cell_length_c                         10.120339
_cell_angle_alpha                      89.929497
_cell_angle_beta                       89.641167
_cell_angle_gamma                      60.118038
_cell_volume                           837.787028
_space_group_name_H-M_alt              'P 1'
_space_group_IT_number                 1

loop_
_space_group_symop_operation_xyz
   'x, y, z'

loop_
   _atom_site_label
   _atom_site_occupancy
   _atom_site_fract_x
   _atom_site_fract_y
   _atom_site_fract_z
   _atom_site_adp_type
   _atom_site_U_iso_or_equiv
   _atom_site_type_symbol
   Mg1        1.0     0.118128     0.088326     0.316062    Uiso  ? Mg
   Mg2        1.0     0.555852     0.541723     0.067912    Uiso  ? Mg
   Mg3        1.0     0.224975     0.872798     0.064464    Uiso  ? Mg
   Mg4        1.0     0.773103     0.758702     0.808056    Uiso  ? Mg
   Mg5        1.0     0.556230     0.862695     0.065745    Uiso  ? Mg
   Al1        1.0     0.216185     0.204519     0.071724    Uiso  ? Al
   Al2        1.0     0.893508     0.207705     0.568242    Uiso  ? Al
   Al3        1.0     0.434762     0.097558     0.343173    Uiso  ? Al
   Al4        1.0     0.537818     0.221105     0.061528    Uiso  ? Al
   Al5        1.0     0.119831     0.087640     0.809979    Uiso  ? Al
   Al6        1.0     0.212935     0.207747     0.558145    Uiso  ? Al
   Al7        1.0     0.902160     0.218476     0.059365    Uiso  ? Al
   Al8        1.0     0.439165     0.088371     0.871292    Uiso  ? Al
   Al9        1.0     0.116968     0.423267     0.307196    Uiso  ? Al
   Al10       1.0     0.225264     0.542892     0.073399    Uiso  ? Al
   Al11       1.0     0.771169     0.435414     0.812753    Uiso  ? Al
   Al12       1.0     0.890111     0.531785     0.562846    Uiso  ? Al
   Al13       1.0     0.439171     0.435772     0.313869    Uiso  ? Al
   Al14       1.0     0.215652     0.546434     0.558718    Uiso  ? Al
   Al15       1.0     0.776589     0.425352     0.314197    Uiso  ? Al
   Al16       1.0     0.887105     0.535940     0.069554    Uiso  ? Al
   Al17       1.0     0.439796     0.447997     0.815362    Uiso  ? Al
   Al18       1.0     0.553986     0.545129     0.564615    Uiso  ? Al
   Al19       1.0     0.124102     0.755574     0.314021    Uiso  ? Al
   Al20       1.0     0.899833     0.865031     0.569326    Uiso  ? Al
   Al21       1.0     0.436045     0.758989     0.312812    Uiso  ? Al
   Al22       1.0     0.122967     0.760407     0.813307    Uiso  ? Al
   Al23       1.0     0.224404     0.868137     0.566778    Uiso  ? Al
   Al24       1.0     0.905536     0.847714     0.061621    Uiso  ? Al
   Al25       1.0     0.443189     0.763336     0.811316    Uiso  ? Al
   Al26       1.0     0.546708     0.870358     0.573276    Uiso  ? Al
   Hf1        1.0     0.786146     0.089616     0.844058    Uiso  ? Hf
   Hf2        1.0     0.780038     0.099040     0.300550    Uiso  ? Hf
   Hf3        1.0     0.550288     0.207569     0.588093    Uiso  ? Hf
   Hf4        1.0     0.112053     0.431080     0.827241    Uiso  ? Hf
   Hf5        1.0     0.777029     0.756298     0.331874    Uiso  ? Hf
   N1         1.0     0.222179     0.218045     0.371475    Uiso  ? N
   N2         1.0     0.103717     0.106292     0.116342    Uiso  ? N
   N3         1.0     0.900131     0.217225     0.868300    Uiso  ? N
   N4         1.0     0.796147     0.082636     0.629081    Uiso  ? N
   N5         1.0     0.547758     0.210418     0.373882    Uiso  ? N
   N6         1.0     0.437554     0.107031     0.088897    Uiso  ? N
   N7         1.0     0.220540     0.196259     0.873843    Uiso  ? N
   N8         1.0     0.109619     0.096022     0.618062    Uiso  ? N
   N9         1.0     0.877730     0.217119     0.382264    Uiso  ? N
   N10        1.0     0.774420     0.098139     0.086300    Uiso  ? N
   N11        1.0     0.534973     0.221740     0.854649    Uiso  ? N
   N12        1.0     0.429540     0.091190     0.599574    Uiso  ? N
   N13        1.0     0.220183     0.537702     0.370888    Uiso  ? N
   N14        1.0     0.111694     0.429679     0.112851    Uiso  ? N
   N15        1.0     0.879618     0.533300     0.879919    Uiso  ? N
   N16        1.0     0.777262     0.427815     0.622156    Uiso  ? N
   N17        1.0     0.558158     0.534355     0.375467    Uiso  ? N
   N18        1.0     0.437624     0.422547     0.128961    Uiso  ? N
   N19        1.0     0.232767     0.550396     0.881365    Uiso  ? N
   N20        1.0     0.109164     0.430103     0.618312    Uiso  ? N
   N21        1.0     0.901290     0.516097     0.374076    Uiso  ? N
   N22        1.0     0.790423     0.421286     0.129164    Uiso  ? N
   N23        1.0     0.557147     0.541346     0.859177    Uiso  ? N
   N24        1.0     0.428339     0.450032     0.623914    Uiso  ? N
   N25        1.0     0.227963     0.855434     0.381970    Uiso  ? N
   N26        1.0     0.106772     0.753709     0.130410    Uiso  ? N
   N27        1.0     0.912703     0.850417     0.875300    Uiso  ? N
   N28        1.0     0.779074     0.758575     0.592003    Uiso  ? N
   N29        1.0     0.536839     0.879420     0.377778    Uiso  ? N
   N30        1.0     0.443150     0.759235     0.135374    Uiso  ? N
   N31        1.0     0.223160     0.873378     0.853746    Uiso  ? N
   N32        1.0     0.111613     0.756877     0.623712    Uiso  ? N
   N33        1.0     0.904448     0.872701     0.378676    Uiso  ? N
   N34        1.0     0.793922     0.751592     0.126842    Uiso  ? N
   N35        1.0     0.544941     0.876028     0.854375    Uiso  ? N
   N36        1.0     0.443514     0.758311     0.619752    Uiso  ? N
