# generated using pymatgen
data_GdAl17N18
_symmetry_space_group_name_H-M   'P 1'
_cell_length_a   9.86130828
_cell_length_b   9.90858648
_cell_length_c   9.07420264
_cell_angle_alpha   90.02493409
_cell_angle_beta   90.00000254
_cell_angle_gamma   60.15773292
_symmetry_Int_Tables_number   1
_chemical_formula_structural   GdAl17N18
_chemical_formula_sum   'Gd2 Al34 N36'
_cell_volume   769.08328983
_cell_formula_units_Z   2
loop_
 _symmetry_equiv_pos_site_id
 _symmetry_equiv_pos_as_xyz
  1  'x, y, z'
loop_
 _atom_site_type_symbol
 _atom_site_label
 _atom_site_symmetry_multiplicity
 _atom_site_fract_x
 _atom_site_fract_y
 _atom_site_fract_z
 _atom_site_occupancy
  Al  Al0  1  0.10962816  0.09741049  0.37280280  1
  Al  Al1  1  0.22241357  0.20125709  0.12210803  1
  Al  Al2  1  0.77696574  0.09299732  0.87418407  1
  Al  Al3  1  0.89111770  0.20066696  0.62364104  1
  Al  Al4  1  0.44399507  0.09317628  0.37232277  1
  Al  Al5  1  0.56057518  0.19551630  0.12667518  1
  Al  Al6  1  0.11125008  0.09416671  0.87464085  1
  Al  Al7  1  0.22488208  0.20066712  0.62364101  1
  Al  Al8  1  0.77949531  0.09317641  0.37232264  1
  Al  Al9  1  0.89299636  0.20125698  0.12210799  1
  Al  Al10  1  0.44670368  0.09299727  0.87418393  1
  Al  Al11  1  0.55995696  0.19675289  0.62035631  1
  Al  Al12  1  0.11045216  0.42295817  0.38324411  1
  Al  Al13  1  0.78505655  0.42313732  0.86112707  1
  Al  Al14  1  0.88751969  0.54162751  0.62267998  1
  Al  Al15  1  0.44690067  0.42286533  0.39112490  1
  Al  Al16  1  0.10847294  0.42313747  0.86112734  1
  Al  Al17  1  0.21853922  0.54116773  0.61617241  1
  Al  Al18  1  0.78325650  0.42295809  0.38324439  1
  Al  Al19  1  0.89238494  0.53189695  0.12314685  1
  Al  Al20  1  0.44892750  0.41881164  0.85108154  1
  Al  Al21  1  0.55695980  0.54116767  0.61617243  1
  Al  Al22  1  0.10740762  0.76699775  0.38260787  1
  Al  Al23  1  0.21551266  0.88564108  0.12569624  1
  Al  Al24  1  0.77824494  0.76017659  0.87488595  1
  Al  Al25  1  0.88435564  0.87384284  0.62327442  1
  Al  Al26  1  0.44226108  0.76699760  0.38260760  1
  Al  Al27  1  0.55329635  0.87738935  0.12259350  1
  Al  Al28  1  0.10586457  0.77215001  0.86134356  1
  Al  Al29  1  0.21905751  0.87855166  0.61984279  1
  Al  Al30  1  0.77842501  0.75981636  0.36972497  1
  Al  Al31  1  0.88598064  0.87738943  0.12259357  1
  Al  Al32  1  0.43865192  0.77214976  0.86134382  1
  Al  Al33  1  0.55846798  0.87384268  0.62327447  1
  Gd  Gd34  1  0.21726369  0.54207423  0.11062912  1
  Gd  Gd35  1  0.55732942  0.54207372  0.11062911  1
  N  N36  1  0.22269426  0.20589190  0.33734304  1
  N  N37  1  0.10976695  0.09713304  0.08837565  1
  N  N38  1  0.89054421  0.20022141  0.83470345  1
  N  N39  1  0.78004025  0.09199268  0.58319391  1
  N  N40  1  0.55554875  0.20556918  0.34207528  1
  N  N41  1  0.44569683  0.09374666  0.08899620  1
  N  N42  1  0.22590111  0.20022165  0.83470349  1
  N  N43  1  0.10979615  0.09707453  0.58329996  1
  N  N44  1  0.88808071  0.20589191  0.33734302  1
  N  N45  1  0.77722314  0.09374678  0.08899634  1
  N  N46  1  0.56039624  0.19587432  0.82892692  1
  N  N47  1  0.44463385  0.09199257  0.58319406  1
  N  N48  1  0.22201521  0.53931829  0.36826770  1
  N  N49  1  0.10081553  0.41023440  0.07655952  1
  N  N50  1  0.88690594  0.54285507  0.83229922  1
  N  N51  1  0.78302361  0.42331425  0.59488447  1
  N  N52  1  0.55533344  0.53931805  0.36826770  1
  N  N53  1  0.46092976  0.39480717  0.06654743  1
  N  N54  1  0.21749275  0.54303891  0.83441626  1
  N  N55  1  0.11032888  0.42331432  0.59488422  1
  N  N56  1  0.89025777  0.53615115  0.33989853  1
  N  N57  1  0.80561730  0.41023412  0.07655914  1
  N  N58  1  0.55613521  0.54303880  0.83441626  1
  N  N59  1  0.44710216  0.42246232  0.60275869  1
  N  N60  1  0.22141743  0.87383154  0.34271566  1
  N  N61  1  0.09531674  0.79649319  0.07678460  1
  N  N62  1  0.88339507  0.87407452  0.83478594  1
  N  N63  1  0.77812040  0.76042558  0.58216560  1
  N  N64  1  0.55594172  0.87160960  0.33676354  1
  N  N65  1  0.42485657  0.79649274  0.07678494  1
  N  N66  1  0.21886362  0.87893943  0.82823510  1
  N  N67  1  0.10689106  0.76661670  0.59361267  1
  N  N68  1  0.88911512  0.87160963  0.33676360  1
  N  N69  1  0.77969185  0.75728266  0.09034280  1
  N  N70  1  0.55919685  0.87407435  0.83478605  1
  N  N71  1  0.44315872  0.76661655  0.59361244  1
