# generated using pymatgen
data_GdAl17N18
_symmetry_space_group_name_H-M   'P 1'
_cell_length_a   9.49323454
_cell_length_b   9.51114131
_cell_length_c   10.14332990
_cell_angle_alpha   89.91031028
_cell_angle_beta   90.00000000
_cell_angle_gamma   60.06226086
_symmetry_Int_Tables_number   1
_chemical_formula_structural   GdAl17N18
_chemical_formula_sum   'Gd2 Al34 N36'
_cell_volume   793.65077544
_cell_formula_units_Z   2
loop_
 _symmetry_equiv_pos_site_id
 _symmetry_equiv_pos_as_xyz
  1  'x, y, z'
loop_
 _atom_site_type_symbol
 _atom_site_label
 _atom_site_symmetry_multiplicity
 _atom_site_fract_x
 _atom_site_fract_y
 _atom_site_fract_z
 _atom_site_occupancy
  Al  Al0  1  0.11093776  0.09479116  0.30089283  1
  Al  Al1  1  0.22183422  0.20121014  0.05334996  1
  Al  Al2  1  0.77827345  0.09394211  0.80253377  1
  Al  Al3  1  0.89061531  0.20250291  0.55127858  1
  Al  Al4  1  0.44537392  0.09397490  0.30137396  1
  Al  Al5  1  0.55927954  0.19810757  0.05235930  1
  Al  Al6  1  0.11116980  0.09432706  0.80266819  1
  Al  Al7  1  0.22354843  0.20250292  0.55127858  1
  Al  Al8  1  0.77731784  0.09397490  0.30137396  1
  Al  Al9  1  0.89362231  0.20121014  0.05334997  1
  Al  Al10  1  0.44445109  0.09394211  0.80253376  1
  Al  Al11  1  0.55820164  0.20026337  0.55080531  1
  Al  Al12  1  0.10895286  0.42421080  0.30751912  1
  Al  Al13  1  0.78149195  0.42465164  0.79241585  1
  Al  Al14  1  0.88823207  0.54020255  0.55006028  1
  Al  Al15  1  0.44737849  0.42190970  0.31367527  1
  Al  Al16  1  0.11052308  0.42465166  0.79241585  1
  Al  Al17  1  0.21962488  0.54005687  0.55064602  1
  Al  Al18  1  0.78350303  0.42421079  0.30751912  1
  Al  Al19  1  0.89201768  0.53263129  0.05386133  1
  Al  Al20  1  0.44624045  0.42418577  0.78372071  1
  Al  Al21  1  0.55698493  0.54005686  0.55064602  1
  Al  Al22  1  0.10657516  0.76960213  0.30785790  1
  Al  Al23  1  0.21601569  0.88463529  0.05403193  1
  Al  Al24  1  0.77846556  0.75973554  0.80315442  1
  Al  Al25  1  0.88609472  0.87370607  0.55136067  1
  Al  Al26  1  0.44048938  0.76960213  0.30785791  1
  Al  Al27  1  0.55342286  0.87815052  0.05290233  1
  Al  Al28  1  0.10998318  0.76362382  0.79256307  1
  Al  Al29  1  0.22040529  0.87585610  0.55075188  1
  Al  Al30  1  0.77780886  0.76104894  0.30218298  1
  Al  Al31  1  0.88509329  0.87815053  0.05290233  1
  Al  Al32  1  0.44305968  0.76362381  0.79256308  1
  Al  Al33  1  0.55686588  0.87370607  0.55136067  1
  Gd  Gd34  1  0.21667738  0.54165741  0.05172671  1
  Gd  Gd35  1  0.55833187  0.54165742  0.05172671  1
  N  N36  1  0.22452088  0.20195919  0.36283656  1
  N  N37  1  0.10970019  0.09726628  0.11136798  1
  N  N38  1  0.88840821  0.20603009  0.86135245  1
  N  N39  1  0.77835837  0.09368206  0.61321537  1
  N  N40  1  0.55889427  0.19887813  0.36473829  1
  N  N41  1  0.44463972  0.09501716  0.11034022  1
  N  N42  1  0.22222835  0.20603010  0.86135244  1
  N  N43  1  0.11100840  0.09464985  0.61348535  1
  N  N44  1  0.89018661  0.20195918  0.36283656  1
  N  N45  1  0.77700977  0.09501716  0.11034022  1
  N  N46  1  0.55474255  0.20718155  0.85982651  1
  N  N47  1  0.44462622  0.09368206  0.61321537  1
  N  N48  1  0.21847334  0.54179882  0.35792399  1
  N  N49  1  0.10088725  0.41095436  0.12211575  1
  N  N50  1  0.89019662  0.53627345  0.86090070  1
  N  N51  1  0.78173275  0.42501796  0.60450636  1
  N  N52  1  0.55639453  0.54179882  0.35792400  1
  N  N53  1  0.45898800  0.39869067  0.13106791  1
  N  N54  1  0.22334717  0.53763805  0.82934583  1
  N  N55  1  0.10991597  0.42501797  0.60450636  1
  N  N56  1  0.88751136  0.54164396  0.36345500  1
  N  N57  1  0.80482506  0.41095436  0.12211575  1
  N  N58  1  0.55568145  0.53763804  0.82934583  1
  N  N59  1  0.44618872  0.42428924  0.59637913  1
  N  N60  1  0.22002180  0.87662307  0.36494515  1
  N  N61  1  0.09494471  0.79450808  0.12245137  1
  N  N62  1  0.89063761  0.87056943  0.86150793  1
  N  N63  1  0.77813671  0.76039325  0.61315542  1
  N  N64  1  0.55779159  0.87400021  0.36297324  1
  N  N65  1  0.42721388  0.79450808  0.12245137  1
  N  N66  1  0.22320947  0.87024774  0.86068187  1
  N  N67  1  0.10886784  0.76478865  0.60475714  1
  N  N68  1  0.88487487  0.87400021  0.36297324  1
  N  N69  1  0.77906695  0.75853278  0.10987159  1
  N  N70  1  0.55545963  0.87056944  0.86150793  1
  N  N71  1  0.44301018  0.76478864  0.60475715  1
