# generated using pymatgen
data_GdAl17N18
_symmetry_space_group_name_H-M   'P 1'
_cell_length_a   9.56274501
_cell_length_b   9.59266389
_cell_length_c   9.94612575
_cell_angle_alpha   90.06259993
_cell_angle_beta   90.00000186
_cell_angle_gamma   60.10312959
_symmetry_Int_Tables_number   1
_chemical_formula_structural   GdAl17N18
_chemical_formula_sum   'Gd2 Al34 N36'
_cell_volume   790.96345561
_cell_formula_units_Z   2
loop_
 _symmetry_equiv_pos_site_id
 _symmetry_equiv_pos_as_xyz
  1  'x, y, z'
loop_
 _atom_site_type_symbol
 _atom_site_label
 _atom_site_symmetry_multiplicity
 _atom_site_fract_x
 _atom_site_fract_y
 _atom_site_fract_z
 _atom_site_occupancy
  Al  Al0  1  0.11071984  0.09522698  0.38200311  1
  Al  Al1  1  0.22208116  0.20100977  0.13153093  1
  Al  Al2  1  0.77723499  0.09352236  0.88352034  1
  Al  Al3  1  0.89057862  0.20218978  0.63307756  1
  Al  Al4  1  0.44435075  0.09372945  0.38183444  1
  Al  Al5  1  0.55980538  0.19705588  0.13313772  1
  Al  Al6  1  0.11097920  0.09470831  0.88404309  1
  Al  Al7  1  0.22389825  0.20218983  0.63307756  1
  Al  Al8  1  0.77858641  0.09372947  0.38183441  1
  Al  Al9  1  0.89357584  0.20100973  0.13153090  1
  Al  Al10  1  0.44590931  0.09352236  0.88352031  1
  Al  Al11  1  0.55873012  0.19920642  0.63230908  1
  Al  Al12  1  0.11096418  0.42476917  0.39127946  1
  Al  Al13  1  0.78465674  0.42344903  0.87611736  1
  Al  Al14  1  0.88813204  0.54040267  0.63352971  1
  Al  Al15  1  0.44597501  0.42471662  0.39951260  1
  Al  Al16  1  0.10856096  0.42344907  0.87611743  1
  Al  Al17  1  0.21914306  0.54057435  0.63330371  1
  Al  Al18  1  0.78093334  0.42476913  0.39127951  1
  Al  Al19  1  0.89234932  0.53196811  0.13157848  1
  Al  Al20  1  0.44828484  0.42009705  0.86788746  1
  Al  Al21  1  0.55694931  0.54057432  0.63330370  1
  Al  Al22  1  0.10981692  0.76370043  0.39091054  1
  Al  Al23  1  0.21562915  0.88540834  0.13167739  1
  Al  Al24  1  0.77801529  0.76063603  0.88283614  1
  Al  Al25  1  0.88581497  0.87359986  0.63286621  1
  Al  Al26  1  0.44314929  0.76370040  0.39091051  1
  Al  Al27  1  0.55342325  0.87781217  0.13189093  1
  Al  Al28  1  0.10586929  0.77125134  0.87581166  1
  Al  Al29  1  0.22011687  0.87643296  0.63244153  1
  Al  Al30  1  0.77848276  0.75970108  0.38091658  1
  Al  Al31  1  0.88543119  0.87781220  0.13189094  1
  Al  Al32  1  0.43954603  0.77125128  0.87581170  1
  Al  Al33  1  0.55725180  0.87359982  0.63286622  1
  Gd  Gd34  1  0.21745573  0.54149402  0.12679153  1
  Gd  Gd35  1  0.55771718  0.54149389  0.12679153  1
  N  N36  1  0.22229599  0.20614139  0.32616326  1
  N  N37  1  0.10964033  0.09738608  0.07648178  1
  N  N38  1  0.89025501  0.20142575  0.82440387  1
  N  N39  1  0.77891914  0.09310309  0.57367131  1
  N  N40  1  0.55484452  0.20697758  0.32830667  1
  N  N41  1  0.44509473  0.09437175  0.07743936  1
  N  N42  1  0.22498592  0.20142582  0.82440389  1
  N  N43  1  0.11068795  0.09529076  0.57367902  1
  N  N44  1  0.88822932  0.20614138  0.32616325  1
  N  N45  1  0.77720016  0.09437177  0.07743939  1
  N  N46  1  0.55967003  0.19732665  0.82112809  1
  N  N47  1  0.44464441  0.09310307  0.57367134  1
  N  N48  1  0.22323060  0.53813638  0.35469487  1
  N  N49  1  0.10058638  0.41000360  0.06519031  1
  N  N50  1  0.88742631  0.54181415  0.82316924  1
  N  N51  1  0.78145525  0.42487067  0.58262796  1
  N  N52  1  0.55529975  0.53813632  0.35469488  1
  N  N53  1  0.46066129  0.39534417  0.05425473  1
  N  N54  1  0.21792358  0.54237031  0.83012850  1
  N  N55  1  0.11034077  0.42487070  0.58262792  1
  N  N56  1  0.89020720  0.53625227  0.32700910  1
  N  N57  1  0.80607690  0.41000350  0.06519022  1
  N  N58  1  0.55637289  0.54237029  0.83012849  1
  N  N59  1  0.44615056  0.42436553  0.59110522  1
  N  N60  1  0.22260183  0.87146299  0.32753527  1
  N  N61  1  0.09448206  0.79635645  0.06473216  1
  N  N62  1  0.88439542  0.87402507  0.82417210  1
  N  N63  1  0.77817668  0.76031324  0.57360849  1
  N  N64  1  0.55557706  0.87082846  0.32586176  1
  N  N65  1  0.42582814  0.79635632  0.06473221  1
  N  N66  1  0.21955222  0.87756226  0.82118443  1
  N  N67  1  0.10869257  0.76474203  0.58209611  1
  N  N68  1  0.89026112  0.87082846  0.32586177  1
  N  N69  1  0.77945141  0.75776377  0.07785118  1
  N  N70  1  0.55824613  0.87402506  0.82417212  1
  N  N71  1  0.44323204  0.76474199  0.58209607  1
