# generated using pymatgen
data_GdAl17N18
_symmetry_space_group_name_H-M   'P 1'
_cell_length_a   9.49323607
_cell_length_b   9.51114322
_cell_length_c   10.14333200
_cell_angle_alpha   89.91030353
_cell_angle_beta   90.00000002
_cell_angle_gamma   60.06226214
_symmetry_Int_Tables_number   1
_chemical_formula_structural   GdAl17N18
_chemical_formula_sum   'Gd2 Al34 N36'
_cell_volume   793.65123761
_cell_formula_units_Z   2
loop_
 _symmetry_equiv_pos_site_id
 _symmetry_equiv_pos_as_xyz
  1  'x, y, z'
loop_
 _atom_site_type_symbol
 _atom_site_label
 _atom_site_symmetry_multiplicity
 _atom_site_fract_x
 _atom_site_fract_y
 _atom_site_fract_z
 _atom_site_occupancy
  Al  Al0  1  0.11093620  0.09479428  0.29968604  1
  Al  Al1  1  0.22183270  0.20121320  0.05214253  1
  Al  Al2  1  0.77827185  0.09394519  0.80132666  1
  Al  Al3  1  0.89061367  0.20250619  0.55007167  1
  Al  Al4  1  0.44537229  0.09397810  0.30016718  1
  Al  Al5  1  0.55927803  0.19811058  0.05115185  1
  Al  Al6  1  0.11116821  0.09433024  0.80146094  1
  Al  Al7  1  0.22354680  0.20250620  0.55007167  1
  Al  Al8  1  0.77731627  0.09397810  0.30016718  1
  Al  Al9  1  0.89362077  0.20121320  0.05214254  1
  Al  Al10  1  0.44444960  0.09394519  0.80132666  1
  Al  Al11  1  0.55819994  0.20026677  0.54959807  1
  Al  Al12  1  0.10895126  0.42421398  0.30631082  1
  Al  Al13  1  0.78149041  0.42465471  0.79120797  1
  Al  Al14  1  0.88823056  0.54020558  0.54885265  1
  Al  Al15  1  0.44737684  0.42191298  0.31246512  1
  Al  Al16  1  0.11052156  0.42465473  0.79120797  1
  Al  Al17  1  0.21962338  0.54005998  0.54943734  1
  Al  Al18  1  0.78350144  0.42421398  0.30631082  1
  Al  Al19  1  0.89201606  0.53263453  0.05265312  1
  Al  Al20  1  0.44623888  0.42418890  0.78251184  1
  Al  Al21  1  0.55698332  0.54005998  0.54943734  1
  Al  Al22  1  0.10657360  0.76960543  0.30665024  1
  Al  Al23  1  0.21601403  0.88463861  0.05282417  1
  Al  Al24  1  0.77846397  0.75973872  0.80194676  1
  Al  Al25  1  0.88609316  0.87370928  0.55015385  1
  Al  Al26  1  0.44048765  0.76960543  0.30665025  1
  Al  Al27  1  0.55342136  0.87815375  0.05169534  1
  Al  Al28  1  0.10998153  0.76362693  0.79135545  1
  Al  Al29  1  0.22040371  0.87585926  0.54954514  1
  Al  Al30  1  0.77780727  0.76105211  0.30097611  1
  Al  Al31  1  0.88509157  0.87815375  0.05169533  1
  Al  Al32  1  0.44305822  0.76362692  0.79135545  1
  Al  Al33  1  0.55686422  0.87370928  0.55015385  1
  Gd  Gd34  1  0.21667526  0.54166107  0.05051755  1
  Gd  Gd35  1  0.55833033  0.54166108  0.05051755  1
  N  N36  1  0.22451917  0.20196259  0.36162913  1
  N  N37  1  0.10969862  0.09726944  0.11016054  1
  N  N38  1  0.88840667  0.20603320  0.86014475  1
  N  N39  1  0.77835673  0.09368528  0.61200794  1
  N  N40  1  0.55889240  0.19888186  0.36353047  1
  N  N41  1  0.44463812  0.09502040  0.10913271  1
  N  N42  1  0.22222678  0.20603321  0.86014474  1
  N  N43  1  0.11100677  0.09465311  0.61227798  1
  N  N44  1  0.89018493  0.20196258  0.36162913  1
  N  N45  1  0.77700814  0.09502040  0.10913271  1
  N  N46  1  0.55474095  0.20718474  0.85861840  1
  N  N47  1  0.44462465  0.09368528  0.61200794  1
  N  N48  1  0.21847191  0.54180191  0.35671502  1
  N  N49  1  0.10088570  0.41095766  0.12090720  1
  N  N50  1  0.89019505  0.53627658  0.85969244  1
  N  N51  1  0.78173104  0.42502124  0.60329830  1
  N  N52  1  0.55639286  0.54180192  0.35671502  1
  N  N53  1  0.45898610  0.39869446  0.12985809  1
  N  N54  1  0.22334569  0.53764110  0.82813685  1
  N  N55  1  0.10991440  0.42502125  0.60329831  1
  N  N56  1  0.88750986  0.54164697  0.36224695  1
  N  N57  1  0.80482330  0.41095766  0.12090720  1
  N  N58  1  0.55567989  0.53764109  0.82813685  1
  N  N59  1  0.44618703  0.42429261  0.59517043  1
  N  N60  1  0.22002022  0.87662622  0.36373802  1
  N  N61  1  0.09494321  0.79451126  0.12124343  1
  N  N62  1  0.89063609  0.87057243  0.86030047  1
  N  N63  1  0.77813517  0.76039632  0.61194768  1
  N  N64  1  0.55778995  0.87400339  0.36176593  1
  N  N65  1  0.42721221  0.79451126  0.12124343  1
  N  N66  1  0.22320796  0.87025078  0.85947389  1
  N  N67  1  0.10886629  0.76479166  0.60354931  1
  N  N68  1  0.88487333  0.87400339  0.36176593  1
  N  N69  1  0.77906542  0.75853583  0.10866387  1
  N  N70  1  0.55545815  0.87057244  0.86030047  1
  N  N71  1  0.44300872  0.76479166  0.60354932  1
