# generated using pymatgen
data_GdAl17N18
_symmetry_space_group_name_H-M   'P 1'
_cell_length_a   9.51333449
_cell_length_b   9.53654561
_cell_length_c   10.08508364
_cell_angle_alpha   89.92523020
_cell_angle_beta   90.00000067
_cell_angle_gamma   60.08048349
_symmetry_Int_Tables_number   1
_chemical_formula_structural   GdAl17N18
_chemical_formula_sum   'Gd2 Al34 N36'
_cell_volume   793.02183479
_cell_formula_units_Z   2
loop_
 _symmetry_equiv_pos_site_id
 _symmetry_equiv_pos_as_xyz
  1  'x, y, z'
loop_
 _atom_site_type_symbol
 _atom_site_label
 _atom_site_symmetry_multiplicity
 _atom_site_fract_x
 _atom_site_fract_y
 _atom_site_fract_z
 _atom_site_occupancy
  Al  Al0  1  0.11095740  0.09475188  0.32459026  1
  Al  Al1  1  0.22198859  0.20103424  0.07699460  1
  Al  Al2  1  0.77840100  0.09383178  0.82636435  1
  Al  Al3  1  0.89054192  0.20245926  0.57518629  1
  Al  Al4  1  0.44560426  0.09374743  0.32509417  1
  Al  Al5  1  0.55958110  0.19750446  0.07579730  1
  Al  Al6  1  0.11099644  0.09467378  0.82635073  1
  Al  Al7  1  0.22366549  0.20245927  0.57518629  1
  Al  Al8  1  0.77731498  0.09374742  0.32509417  1
  Al  Al9  1  0.89364384  0.20103424  0.07699461  1
  Al  Al10  1  0.44443387  0.09383178  0.82636436  1
  Al  Al11  1  0.55835658  0.19995351  0.57523394  1
  Al  Al12  1  0.10881121  0.42384360  0.33154676  1
  Al  Al13  1  0.78113667  0.42476513  0.81670948  1
  Al  Al14  1  0.88824424  0.54017822  0.57430769  1
  Al  Al15  1  0.44780175  0.42106320  0.33844396  1
  Al  Al16  1  0.11076487  0.42476515  0.81670948  1
  Al  Al17  1  0.21951182  0.54021706  0.57446416  1
  Al  Al18  1  0.78401188  0.42384360  0.33154675  1
  Al  Al19  1  0.89216805  0.53233055  0.07726626  1
  Al  Al20  1  0.44609538  0.42447592  0.80830456  1
  Al  Al21  1  0.55693783  0.54021705  0.57446417  1
  Al  Al22  1  0.10632298  0.77024257  0.33191318  1
  Al  Al23  1  0.21583446  0.88499775  0.07739242  1
  Al  Al24  1  0.77847878  0.75970910  0.82705544  1
  Al  Al25  1  0.88608930  0.87359275  0.57532799  1
  Al  Al26  1  0.44010112  0.77024257  0.33191318  1
  Al  Al27  1  0.55349204  0.87794897  0.07659581  1
  Al  Al28  1  0.11000306  0.76352603  0.81694811  1
  Al  Al29  1  0.22034592  0.87597484  0.57512457  1
  Al  Al30  1  0.77793694  0.76079278  0.32590340  1
  Al  Al31  1  0.88522567  0.87794897  0.07659580  1
  Al  Al32  1  0.44313759  0.76352602  0.81694811  1
  Al  Al33  1  0.55698462  0.87359275  0.57532800  1
  Gd  Gd34  1  0.21706031  0.54153165  0.07799548  1
  Gd  Gd35  1  0.55807470  0.54153168  0.07799547  1
  N  N36  1  0.22469561  0.20178012  0.38591895  1
  N  N37  1  0.10967414  0.09731838  0.13425040  1
  N  N38  1  0.88834513  0.20605180  0.88430289  1
  N  N39  1  0.77858710  0.09343615  0.63639088  1
  N  N40  1  0.55919667  0.19827335  0.38840562  1
  N  N41  1  0.44486165  0.09465922  0.13323763  1
  N  N42  1  0.22226973  0.20605182  0.88430289  1
  N  N43  1  0.11089185  0.09488296  0.63651677  1
  N  N44  1  0.89019096  0.20178011  0.38591894  1
  N  N45  1  0.77714580  0.09465921  0.13323763  1
  N  N46  1  0.55481028  0.20704611  0.88259112  1
  N  N47  1  0.44464341  0.09343615  0.63639089  1
  N  N48  1  0.21832005  0.54196024  0.38053775  1
  N  N49  1  0.10077121  0.41048344  0.14512612  1
  N  N50  1  0.89018767  0.53629136  0.88371773  1
  N  N51  1  0.78148921  0.42502132  0.62775856  1
  N  N52  1  0.55638642  0.54196025  0.38053776  1
  N  N53  1  0.45979131  0.39708407  0.15491710  1
  N  N54  1  0.22333779  0.53782750  0.85410383  1
  N  N55  1  0.11015616  0.42502133  0.62775855  1
  N  N56  1  0.88754354  0.54157961  0.38680721  1
  N  N57  1  0.80541201  0.41048344  0.14512610  1
  N  N58  1  0.55550141  0.53782749  0.85410383  1
  N  N59  1  0.44613231  0.42440205  0.61962122  1
  N  N60  1  0.21985894  0.87694880  0.38846465  1
  N  N61  1  0.09474587  0.79528414  0.14555567  1
  N  N62  1  0.89047769  0.87065939  0.88451874  1
  N  N63  1  0.77817163  0.76032340  0.63634150  1
  N  N64  1  0.55795825  0.87394391  0.38611279  1
  N  N65  1  0.42663665  0.79528416  0.14555569  1
  N  N66  1  0.22294416  0.87077839  0.88342603  1
  N  N67  1  0.10890981  0.76460707  0.62810975  1
  N  N68  1  0.88476452  0.87394390  0.38611279  1
  N  N69  1  0.77926889  0.75812888  0.13282214  1
  N  N70  1  0.55552961  0.87065939  0.88451874  1
  N  N71  1  0.44314979  0.76460707  0.62810975  1
