# generated using pymatgen
data_GdAl17N18
_symmetry_space_group_name_H-M   'P 1'
_cell_length_a   10.04456782
_cell_length_b   10.09745936
_cell_length_c   8.52773939
_cell_angle_alpha   90.01949751
_cell_angle_beta   90.00000246
_cell_angle_gamma   60.17314852
_symmetry_Int_Tables_number   1
_chemical_formula_structural   GdAl17N18
_chemical_formula_sum   'Gd2 Al34 N36'
_cell_volume   750.34844232
_cell_formula_units_Z   2
loop_
 _symmetry_equiv_pos_site_id
 _symmetry_equiv_pos_as_xyz
  1  'x, y, z'
loop_
 _atom_site_type_symbol
 _atom_site_label
 _atom_site_symmetry_multiplicity
 _atom_site_fract_x
 _atom_site_fract_y
 _atom_site_fract_z
 _atom_site_occupancy
  Al  Al0  1  0.11022009  0.09622736  0.35821734  1
  Al  Al1  1  0.22336458  0.19998345  0.10502420  1
  Al  Al2  1  0.77823582  0.09321609  0.85198688  1
  Al  Al3  1  0.89021714  0.20217482  0.60501033  1
  Al  Al4  1  0.44543748  0.09279307  0.35727912  1
  Al  Al5  1  0.56184951  0.19296852  0.10399908  1
  Al  Al6  1  0.11032356  0.09602032  0.85230385  1
  Al  Al7  1  0.22427443  0.20217498  0.60501004  1
  Al  Al8  1  0.77843579  0.09279335  0.35727959  1
  Al  Al9  1  0.89332021  0.19998234  0.10502446  1
  Al  Al10  1  0.44521473  0.09321591  0.85198695  1
  Al  Al11  1  0.55875622  0.19915488  0.60334436  1
  Al  Al12  1  0.10945620  0.42269364  0.36445869  1
  Al  Al13  1  0.78485370  0.42242800  0.84545948  1
  Al  Al14  1  0.88841098  0.53984560  0.60498126  1
  Al  Al15  1  0.44858625  0.41949355  0.36645676  1
  Al  Al16  1  0.10938645  0.42242820  0.84545905  1
  Al  Al17  1  0.21971584  0.54037500  0.60402715  1
  Al  Al18  1  0.78451819  0.42269361  0.36445920  1
  Al  Al19  1  0.89114927  0.53436936  0.10508042  1
  Al  Al20  1  0.44796086  0.42074457  0.83672010  1
  Al  Al21  1  0.55657658  0.54037470  0.60402723  1
  Al  Al22  1  0.10645108  0.76989708  0.36486878  1
  Al  Al23  1  0.21488928  0.88688801  0.10594364  1
  Al  Al24  1  0.77846691  0.75973134  0.85378786  1
  Al  Al25  1  0.88562566  0.87313135  0.60511961  1
  Al  Al26  1  0.44031721  0.76989604  0.36486834  1
  Al  Al27  1  0.55462076  0.87781882  0.10482027  1
  Al  Al28  1  0.10639401  0.77056607  0.84557430  1
  Al  Al29  1  0.21956515  0.87753732  0.60507959  1
  Al  Al30  1  0.77846688  0.75973149  0.35615553  1
  Al  Al31  1  0.88422495  0.87781947  0.10482053  1
  Al  Al32  1  0.43970490  0.77056506  0.84557436  1
  Al  Al33  1  0.55790827  0.87313225  0.60511949  1
  Gd  Gd34  1  0.21569623  0.54332068  0.10431299  1
  Gd  Gd35  1  0.55765195  0.54331903  0.10431301  1
  N  N36  1  0.22445920  0.20302697  0.35713787  1
  N  N37  1  0.10940807  0.09785213  0.10431969  1
  N  N38  1  0.88953211  0.20279932  0.85125283  1
  N  N39  1  0.77963420  0.09207129  0.60492717  1
  N  N40  1  0.55873840  0.19918988  0.36167130  1
  N  N41  1  0.44530711  0.09336419  0.10428910  1
  N  N42  1  0.22433550  0.20279983  0.85125308  1
  N  N43  1  0.10988594  0.09689516  0.60377999  1
  N  N44  1  0.88918120  0.20302673  0.35713771  1
  N  N45  1  0.77799562  0.09336443  0.10428902  1
  N  N46  1  0.55748474  0.20169729  0.84965337  1
  N  N47  1  0.44496117  0.09207167  0.60492739  1
  N  N48  1  0.21922895  0.54135840  0.37404505  1
  N  N49  1  0.10153236  0.41095841  0.10347452  1
  N  N50  1  0.88855693  0.53955433  0.84984186  1
  N  N51  1  0.78317083  0.42329311  0.60455569  1
  N  N52  1  0.55608022  0.54135758  0.37404508  1
  N  N53  1  0.45934383  0.39797931  0.11156563  1
  N  N54  1  0.22056457  0.54068066  0.83478763  1
  N  N55  1  0.11020352  0.42329316  0.60455557  1
  N  N56  1  0.88875230  0.53916323  0.35823718  1
  N  N57  1  0.80417817  0.41095750  0.10347368  1
  N  N58  1  0.55542219  0.54068000  0.83478762  1
  N  N59  1  0.44761825  0.42143046  0.60336856  1
  N  N60  1  0.21999607  0.87667353  0.36104805  1
  N  N61  1  0.09574420  0.79457628  0.10320909  1
  N  N62  1  0.88567926  0.87304706  0.85201928  1
  N  N63  1  0.77847231  0.75972071  0.60390812  1
  N  N64  1  0.55764706  0.87289187  0.35632440  1
  N  N65  1  0.42634579  0.79457438  0.10320944  1
  N  N66  1  0.21973801  0.87718951  0.84654815  1
  N  N67  1  0.10714139  0.76682653  0.60456572  1
  N  N68  1  0.88612604  0.87289223  0.35632449  1
  N  N69  1  0.77946391  0.75773754  0.10434499  1
  N  N70  1  0.55793882  0.87304663  0.85201966  1
  N  N71  1  0.44269866  0.76682610  0.60456568  1
