# generated using pymatgen
data_GdAl17N18
_symmetry_space_group_name_H-M   'P 1'
_cell_length_a   9.79052265
_cell_length_b   9.83470371
_cell_length_c   9.28620170
_cell_angle_alpha   89.97450773
_cell_angle_beta   90.00000119
_cell_angle_gamma   60.14851119
_symmetry_Int_Tables_number   1
_chemical_formula_structural   GdAl17N18
_chemical_formula_sum   'Gd2 Al34 N36'
_cell_volume   775.50360600
_cell_formula_units_Z   2
loop_
 _symmetry_equiv_pos_site_id
 _symmetry_equiv_pos_as_xyz
  1  'x, y, z'
loop_
 _atom_site_type_symbol
 _atom_site_label
 _atom_site_symmetry_multiplicity
 _atom_site_fract_x
 _atom_site_fract_y
 _atom_site_fract_z
 _atom_site_occupancy
  Al  Al0  1  0.11124687  0.09417304  0.33096064  1
  Al  Al1  1  0.22214974  0.20135668  0.08387435  1
  Al  Al2  1  0.77936721  0.09335812  0.83412142  1
  Al  Al3  1  0.89107756  0.20077055  0.58215117  1
  Al  Al4  1  0.44670500  0.09299517  0.33120197  1
  Al  Al5  1  0.56023822  0.19619036  0.07999759  1
  Al  Al6  1  0.10980513  0.09705655  0.83341087  1
  Al  Al7  1  0.22481877  0.20077048  0.58215113  1
  Al  Al8  1  0.77696655  0.09299520  0.33120209  1
  Al  Al9  1  0.89316044  0.20135654  0.08387430  1
  Al  Al10  1  0.44394142  0.09335804  0.83412155  1
  Al  Al11  1  0.56009520  0.19647632  0.58513895  1
  Al  Al12  1  0.10834773  0.42318259  0.34359160  1
  Al  Al13  1  0.78269630  0.42338736  0.82295665  1
  Al  Al14  1  0.88752949  0.54160768  0.58282917  1
  Al  Al15  1  0.44891811  0.41883045  0.35508520  1
  Al  Al16  1  0.11058308  0.42338740  0.82295648  1
  Al  Al17  1  0.21818966  0.54136655  0.58854867  1
  Al  Al18  1  0.78513647  0.42318252  0.34359142  1
  Al  Al19  1  0.89252198  0.53162287  0.08292040  1
  Al  Al20  1  0.44662698  0.42341274  0.81439436  1
  Al  Al21  1  0.55711066  0.54136640  0.58854867  1
  Al  Al22  1  0.10564488  0.77228868  0.34329963  1
  Al  Al23  1  0.21557354  0.88551948  0.08106516  1
  Al  Al24  1  0.77843014  0.75980621  0.83608767  1
  Al  Al25  1  0.88448012  0.87394391  0.58255509  1
  Al  Al26  1  0.43873297  0.77228858  0.34329975  1
  Al  Al27  1  0.55320660  0.87731793  0.08332615  1
  Al  Al28  1  0.10795787  0.76623152  0.82369718  1
  Al  Al29  1  0.21918482  0.87829690  0.58535631  1
  Al  Al30  1  0.77815369  0.76035916  0.33101290  1
  Al  Al31  1  0.88614186  0.87731803  0.08332608  1
  Al  Al32  1  0.44247715  0.76623144  0.82369708  1
  Al  Al33  1  0.55824256  0.87394389  0.58255503  1
  Gd  Gd34  1  0.21784820  0.54154695  0.09524981  1
  Gd  Gd35  1  0.55727167  0.54154687  0.09524982  1
  N  N36  1  0.22592234  0.20021174  0.37750063  1
  N  N37  1  0.10977847  0.09710985  0.12421981  1
  N  N38  1  0.88804989  0.20621467  0.87541426  1
  N  N39  1  0.77992197  0.09216840  0.62939916  1
  N  N40  1  0.56069768  0.19527135  0.38296958  1
  N  N41  1  0.44561244  0.09383287  0.12322484  1
  N  N42  1  0.22240218  0.20621479  0.87541430  1
  N  N43  1  0.10995494  0.09675691  0.62900077  1
  N  N44  1  0.89053277  0.20021176  0.37750066  1
  N  N45  1  0.77722137  0.09383292  0.12322496  1
  N  N46  1  0.55512865  0.20640949  0.87108408  1
  N  N47  1  0.44457640  0.09216833  0.62939927  1
  N  N48  1  0.21712672  0.54324476  0.37535522  1
  N  N49  1  0.10061330  0.41001762  0.13662002  1
  N  N50  1  0.89031703  0.53603280  0.87319702  1
  N  N51  1  0.78284412  0.42357010  0.61759299  1
  N  N52  1  0.55629540  0.54324462  0.37535522  1
  N  N53  1  0.46129919  0.39406828  0.14839414  1
  N  N54  1  0.22244982  0.53901210  0.84438342  1
  N  N55  1  0.11025251  0.42357012  0.61759281  1
  N  N56  1  0.88685067  0.54296534  0.37973921  1
  N  N57  1  0.80603592  0.41001752  0.13661983  1
  N  N58  1  0.55520484  0.53901205  0.84438344  1
  N  N59  1  0.44692250  0.42282166  0.60817124  1
  N  N60  1  0.21890469  0.87885713  0.38329041  1
  N  N61  1  0.09506765  0.79675680  0.13648003  1
  N  N62  1  0.88953789  0.87135648  0.87586811  1
  N  N63  1  0.77808452  0.76049746  0.63002498  1
  N  N64  1  0.55909821  0.87419729  0.37758381  1
  N  N65  1  0.42484202  0.79675667  0.13648016  1
  N  N66  1  0.22167784  0.87331095  0.87099177  1
  N  N67  1  0.10712115  0.76647173  0.61886857  1
  N  N68  1  0.88337105  0.87419730  0.37758387  1
  N  N69  1  0.77967338  0.75731970  0.12234522  1
  N  N70  1  0.55577218  0.87135637  0.87586817  1
  N  N71  1  0.44307367  0.76647164  0.61886845  1
