# generated using pymatgen
data_GdAl17N18
_symmetry_space_group_name_H-M   'P 1'
_cell_length_a   9.56382625
_cell_length_b   9.59373997
_cell_length_c   9.94324106
_cell_angle_alpha   89.94085784
_cell_angle_beta   90.00000077
_cell_angle_gamma   60.10309795
_symmetry_Int_Tables_number   1
_chemical_formula_structural   GdAl17N18
_chemical_formula_sum   'Gd2 Al34 N36'
_cell_volume   790.91198614
_cell_formula_units_Z   2
loop_
 _symmetry_equiv_pos_site_id
 _symmetry_equiv_pos_as_xyz
  1  'x, y, z'
loop_
 _atom_site_type_symbol
 _atom_site_label
 _atom_site_symmetry_multiplicity
 _atom_site_fract_x
 _atom_site_fract_y
 _atom_site_fract_z
 _atom_site_occupancy
  Al  Al0  1  0.11098343  0.09469982  0.32508378  1
  Al  Al1  1  0.22206979  0.20100148  0.07758341  1
  Al  Al2  1  0.77858326  0.09374843  0.82730216  1
  Al  Al3  1  0.89056713  0.20219999  0.57603360  1
  Al  Al4  1  0.44591446  0.09350930  0.32557811  1
  Al  Al5  1  0.55982035  0.19702599  0.07598801  1
  Al  Al6  1  0.11070748  0.09525173  0.82708923  1
  Al  Al7  1  0.22389958  0.20219999  0.57603361  1
  Al  Al8  1  0.77724292  0.09350929  0.32557812  1
  Al  Al9  1  0.89359544  0.20100145  0.07758341  1
  Al  Al10  1  0.44433497  0.09374842  0.82730218  1
  Al  Al11  1  0.55875099  0.19916470  0.57682793  1
  Al  Al12  1  0.10855248  0.42344839  0.33300203  1
  Al  Al13  1  0.78092918  0.42478652  0.81783931  1
  Al  Al14  1  0.88812378  0.54041915  0.57558331  1
  Al  Al15  1  0.44830302  0.42006067  0.34135136  1
  Al  Al16  1  0.11095098  0.42478655  0.81783929  1
  Al  Al17  1  0.21910830  0.54060344  0.57583156  1
  Al  Al18  1  0.78466583  0.42344838  0.33300200  1
  Al  Al19  1  0.89234017  0.53198634  0.07752200  1
  Al  Al20  1  0.44596767  0.42473132  0.80956287  1
  Al  Al21  1  0.55695500  0.54060340  0.57583157  1
  Al  Al22  1  0.10587251  0.77124655  0.33328952  1
  Al  Al23  1  0.21563622  0.88539422  0.07741408  1
  Al  Al24  1  0.77847165  0.75972334  0.82818107  1
  Al  Al25  1  0.88581355  0.87361628  0.57624693  1
  Al  Al26  1  0.43954759  0.77124654  0.33328955  1
  Al  Al27  1  0.55343302  0.87778150  0.07720898  1
  Al  Al28  1  0.10980605  0.76372224  0.81821961  1
  Al  Al29  1  0.22011291  0.87644086  0.57667455  1
  Al  Al30  1  0.77801224  0.76064215  0.32627694  1
  Al  Al31  1  0.88545212  0.87778152  0.07720897  1
  Al  Al32  1  0.44313838  0.76372222  0.81821960  1
  Al  Al33  1  0.55723684  0.87361628  0.57624693  1
  Gd  Gd34  1  0.21753311  0.54141789  0.08237990  1
  Gd  Gd35  1  0.55771570  0.54141791  0.08237989  1
  N  N36  1  0.22499224  0.20142572  0.38466258  1
  N  N37  1  0.10965107  0.09736455  0.13260192  1
  N  N38  1  0.88822909  0.20616172  0.88290877  1
  N  N39  1  0.77892472  0.09311156  0.63542255  1
  N  N40  1  0.55970356  0.19725958  0.38797438  1
  N  N41  1  0.44509384  0.09434751  0.13161275  1
  N  N42  1  0.22227586  0.20616176  0.88290877  1
  N  N43  1  0.11067769  0.09531130  0.63537136  1
  N  N44  1  0.89024876  0.20142572  0.38466257  1
  N  N45  1  0.77722532  0.09434750  0.13161276  1
  N  N46  1  0.55482682  0.20701304  0.88076716  1
  N  N47  1  0.44463039  0.09311155  0.63542257  1
  N  N48  1  0.21790403  0.54237874  0.37895332  1
  N  N49  1  0.10057345  0.41000400  0.14387004  1
  N  N50  1  0.89019222  0.53628227  0.88204900  1
  N  N51  1  0.78145611  0.42488259  0.62644317  1
  N  N52  1  0.55638397  0.54237873  0.37895333  1
  N  N53  1  0.46070375  0.39525920  0.15492572  1
  N  N54  1  0.22323179  0.53815097  0.85437884  1
  N  N55  1  0.11032799  0.42488260  0.62644315  1
  N  N56  1  0.88742164  0.54182343  0.38590057  1
  N  N57  1  0.80608924  0.41000398  0.14387001  1
  N  N58  1  0.55528395  0.53815095  0.85437884  1
  N  N59  1  0.44614920  0.42436828  0.61790755  1
  N  N60  1  0.21955679  0.87755308  0.38788186  1
  N  N61  1  0.09451005  0.79631424  0.14430441  1
  N  N62  1  0.89024472  0.87084583  0.88320024  1
  N  N63  1  0.77816523  0.76033619  0.63544738  1
  N  N64  1  0.55823729  0.87402443  0.38489208  1
  N  N65  1  0.42584233  0.79631424  0.14430444  1
  N  N66  1  0.22258162  0.87150346  0.88151725  1
  N  N67  1  0.10868049  0.76476553  0.62698439  1
  N  N68  1  0.88440496  0.87402441  0.38489208  1
  N  N69  1  0.77944903  0.75776855  0.13122038  1
  N  N70  1  0.55557612  0.87084583  0.88320026  1
  N  N71  1  0.44322064  0.76476550  0.62698437  1
