# generated using pymatgen
data_GdAl17N18
_symmetry_space_group_name_H-M   'P 1'
_cell_length_a   9.49323215
_cell_length_b   9.51113822
_cell_length_c   10.14333411
_cell_angle_alpha   90.08969037
_cell_angle_beta   90.00000017
_cell_angle_gamma   60.06225854
_symmetry_Int_Tables_number   1
_chemical_formula_structural   GdAl17N18
_chemical_formula_sum   'Gd2 Al34 N36'
_cell_volume   793.65063015
_cell_formula_units_Z   2
loop_
 _symmetry_equiv_pos_site_id
 _symmetry_equiv_pos_as_xyz
  1  'x, y, z'
loop_
 _atom_site_type_symbol
 _atom_site_label
 _atom_site_symmetry_multiplicity
 _atom_site_fract_x
 _atom_site_fract_y
 _atom_site_fract_z
 _atom_site_occupancy
  Al  Al0  1  0.11122206  0.09422255  0.39862381  1
  Al  Al1  1  0.22188654  0.20110576  0.14794307  1
  Al  Al2  1  0.77736999  0.09387034  0.89992116  1
  Al  Al3  1  0.89066780  0.20239810  0.65001621  1
  Al  Al4  1  0.44450312  0.09383770  0.39875879  1
  Al  Al5  1  0.55933159  0.19800349  0.14893560  1
  Al  Al6  1  0.11098999  0.09468671  0.90040236  1
  Al  Al7  1  0.22360077  0.20239811  0.65001620  1
  Al  Al8  1  0.77832583  0.09383770  0.39875879  1
  Al  Al9  1  0.89367438  0.20110576  0.14794307  1
  Al  Al10  1  0.44542634  0.09387035  0.89992116  1
  Al  Al11  1  0.55825407  0.20015852  0.65048956  1
  Al  Al12  1  0.11057506  0.42454734  0.40888039  1
  Al  Al13  1  0.78355503  0.42410627  0.89377694  1
  Al  Al14  1  0.88828411  0.54009849  0.65123630  1
  Al  Al15  1  0.44629252  0.42408165  0.41757649  1
  Al  Al16  1  0.10900541  0.42410628  0.89377694  1
  Al  Al17  1  0.21967697  0.53995250  0.65065107  1
  Al  Al18  1  0.78154431  0.42454732  0.40888040  1
  Al  Al19  1  0.89206997  0.53252674  0.14743152  1
  Al  Al20  1  0.44743080  0.42180510  0.88762065  1
  Al  Al21  1  0.55703723  0.53995250  0.65065107  1
  Al  Al22  1  0.11003554  0.76351934  0.40873299  1
  Al  Al23  1  0.21606815  0.88453040  0.14726100  1
  Al  Al24  1  0.77786090  0.76094487  0.89911140  1
  Al  Al25  1  0.88614652  0.87360188  0.64993362  1
  Al  Al26  1  0.44311182  0.76351933  0.40873299  1
  Al  Al27  1  0.55347516  0.87804586  0.14839089  1
  Al  Al28  1  0.10662735  0.76949757  0.89343771  1
  Al  Al29  1  0.22045722  0.87575226  0.65054350  1
  Al  Al30  1  0.77851796  0.75963075  0.39813750  1
  Al  Al31  1  0.88514568  0.87804586  0.14839089  1
  Al  Al32  1  0.44054177  0.76949757  0.89343772  1
  Al  Al33  1  0.55691828  0.87360188  0.64993362  1
  Gd  Gd34  1  0.21672951  0.54155299  0.14956942  1
  Gd  Gd35  1  0.55838418  0.54155300  0.14956942  1
  N  N36  1  0.22228034  0.20592622  0.33994061  1
  N  N37  1  0.10975248  0.09716172  0.08992612  1
  N  N38  1  0.89023884  0.20185462  0.83845838  1
  N  N39  1  0.77841060  0.09357772  0.58807799  1
  N  N40  1  0.55479441  0.20707783  0.34146776  1
  N  N41  1  0.44469219  0.09491272  0.09095411  1
  N  N42  1  0.22457322  0.20185463  0.83845838  1
  N  N43  1  0.11106060  0.09454546  0.58780784  1
  N  N44  1  0.88846012  0.20592621  0.33994061  1
  N  N45  1  0.77706177  0.09491271  0.09095411  1
  N  N46  1  0.55894656  0.19877356  0.83655670  1
  N  N47  1  0.44467834  0.09357773  0.58807799  1
  N  N48  1  0.22339950  0.53753350  0.37195002  1
  N  N49  1  0.10093979  0.41085001  0.07917896  1
  N  N50  1  0.88756358  0.54153954  0.83784111  1
  N  N51  1  0.78178503  0.42491366  0.59678957  1
  N  N52  1  0.55573370  0.53753348  0.37195002  1
  N  N53  1  0.45904000  0.39858670  0.07022746  1
  N  N54  1  0.21852562  0.54169433  0.84337174  1
  N  N55  1  0.10996800  0.42491367  0.59678956  1
  N  N56  1  0.89024910  0.53616850  0.34039270  1
  N  N57  1  0.80487688  0.41085002  0.07917897  1
  N  N58  1  0.55644675  0.54169434  0.84337174  1
  N  N59  1  0.44624085  0.42418500  0.60491737  1
  N  N60  1  0.22326205  0.87014260  0.34061162  1
  N  N61  1  0.09499711  0.79440315  0.07884310  1
  N  N62  1  0.88492707  0.87389583  0.83832122  1
  N  N63  1  0.77818909  0.76028849  0.58813784  1
  N  N64  1  0.55551165  0.87046467  0.33978517  1
  N  N65  1  0.42726643  0.79440316  0.07884310  1
  N  N66  1  0.22007401  0.87651867  0.83635014  1
  N  N67  1  0.10892014  0.76468422  0.59653850  1
  N  N68  1  0.89069037  0.87046466  0.33978518  1
  N  N69  1  0.77911916  0.75842838  0.09142226  1
  N  N70  1  0.55784378  0.87389583  0.83832122  1
  N  N71  1  0.44306232  0.76468422  0.59653850  1
