# generated using pymatgen
data_GdAl17N18
_symmetry_space_group_name_H-M   'P 1'
_cell_length_a   9.49323251
_cell_length_b   9.51114109
_cell_length_c   10.14333502
_cell_angle_alpha   89.91029815
_cell_angle_beta   89.99999981
_cell_angle_gamma   60.06226731
_symmetry_Int_Tables_number   1
_chemical_formula_structural   GdAl17N18
_chemical_formula_sum   'Gd2 Al34 N36'
_cell_volume   793.65104016
_cell_formula_units_Z   2
loop_
 _symmetry_equiv_pos_site_id
 _symmetry_equiv_pos_as_xyz
  1  'x, y, z'
loop_
 _atom_site_type_symbol
 _atom_site_label
 _atom_site_symmetry_multiplicity
 _atom_site_fract_x
 _atom_site_fract_y
 _atom_site_fract_z
 _atom_site_occupancy
  Al  Al0  1  0.11096286  0.09474097  0.31977268  1
  Al  Al1  1  0.22185955  0.20116007  0.07223243  1
  Al  Al2  1  0.77829868  0.09389201  0.82141739  1
  Al  Al3  1  0.89064068  0.20245239  0.57015906  1
  Al  Al4  1  0.44539927  0.09392460  0.32025425  1
  Al  Al5  1  0.55930448  0.19805770  0.07123907  1
  Al  Al6  1  0.11119479  0.09427709  0.82155255  1
  Al  Al7  1  0.22357358  0.20245240  0.57015906  1
  Al  Al8  1  0.77734280  0.09392460  0.32025425  1
  Al  Al9  1  0.89364705  0.20116007  0.07223244  1
  Al  Al10  1  0.44447596  0.09389201  0.82141739  1
  Al  Al11  1  0.55822683  0.20021300  0.56968542  1
  Al  Al12  1  0.10897835  0.42416051  0.32639617  1
  Al  Al13  1  0.78151702  0.42460179  0.81129293  1
  Al  Al14  1  0.88825688  0.54015293  0.56893731  1
  Al  Al15  1  0.44740366  0.42185936  0.33255009  1
  Al  Al16  1  0.11054786  0.42460181  0.81129294  1
  Al  Al17  1  0.21964983  0.54000690  0.56952059  1
  Al  Al18  1  0.78352784  0.42416050  0.32639617  1
  Al  Al19  1  0.89204285  0.53258097  0.07274328  1
  Al  Al20  1  0.44626523  0.42413621  0.80259535  1
  Al  Al21  1  0.55700996  0.54000690  0.56952060  1
  Al  Al22  1  0.10660015  0.76955212  0.32673625  1
  Al  Al23  1  0.21604095  0.88458479  0.07291411  1
  Al  Al24  1  0.77849085  0.75968497  0.82203834  1
  Al  Al25  1  0.88611914  0.87365644  0.57024205  1
  Al  Al26  1  0.44051441  0.76955212  0.32673625  1
  Al  Al27  1  0.55344810  0.87810019  0.07178512  1
  Al  Al28  1  0.11000839  0.76357364  0.81144079  1
  Al  Al29  1  0.22042982  0.87580705  0.56963171  1
  Al  Al30  1  0.77783368  0.76099930  0.32106428  1
  Al  Al31  1  0.88511840  0.87810019  0.07178512  1
  Al  Al32  1  0.44308466  0.76357363  0.81144080  1
  Al  Al33  1  0.55689109  0.87365644  0.57024205  1
  Gd  Gd34  1  0.21670152  0.54160802  0.07060282  1
  Gd  Gd35  1  0.55835713  0.54160803  0.07060282  1
  N  N36  1  0.22454597  0.20190911  0.38171614  1
  N  N37  1  0.10972531  0.09721606  0.13024856  1
  N  N38  1  0.88843258  0.20598103  0.88023446  1
  N  N39  1  0.77838331  0.09363224  0.63209741  1
  N  N40  1  0.55891907  0.19882853  0.38361758  1
  N  N41  1  0.44466516  0.09496708  0.12922090  1
  N  N42  1  0.22225305  0.20598104  0.88023446  1
  N  N43  1  0.11103334  0.09459998  0.63236782  1
  N  N44  1  0.89021161  0.20190909  0.38171613  1
  N  N45  1  0.77703443  0.09496707  0.12922090  1
  N  N46  1  0.55476708  0.20713250  0.87870654  1
  N  N47  1  0.44465111  0.09363224  0.63209741  1
  N  N48  1  0.21849866  0.54174861  0.37680015  1
  N  N49  1  0.10091285  0.41090442  0.14099464  1
  N  N50  1  0.89022204  0.53622262  0.87978166  1
  N  N51  1  0.78175758  0.42496831  0.62338348  1
  N  N52  1  0.55641943  0.54174861  0.37680015  1
  N  N53  1  0.45901238  0.39864193  0.14994384  1
  N  N54  1  0.22337249  0.53758777  0.84822260  1
  N  N55  1  0.10994080  0.42496831  0.62338348  1
  N  N56  1  0.88753651  0.54159367  0.38233233  1
  N  N57  1  0.80484941  0.41090442  0.14099464  1
  N  N58  1  0.55570643  0.53758776  0.84822259  1
  N  N59  1  0.44621344  0.42423981  0.61525470  1
  N  N60  1  0.22004680  0.87657307  0.38382465  1
  N  N61  1  0.09497008  0.79445746  0.14133115  1
  N  N62  1  0.89066357  0.87051872  0.88039014  1
  N  N63  1  0.77816202  0.76034263  0.63203726  1
  N  N64  1  0.55781654  0.87395016  0.38185375  1
  N  N65  1  0.42723914  0.79445746  0.14133116  1
  N  N66  1  0.22323504  0.87019662  0.87956305  1
  N  N67  1  0.10889310  0.76473836  0.62363504  1
  N  N68  1  0.88489997  0.87395016  0.38185375  1
  N  N69  1  0.77909208  0.75848252  0.12875281  1
  N  N70  1  0.55548439  0.87051873  0.88039014  1
  N  N71  1  0.44303522  0.76473835  0.62363504  1
