# generated using pymatgen
data_GdAl17N18
_symmetry_space_group_name_H-M   'P 1'
_cell_length_a   9.49323596
_cell_length_b   9.51114297
_cell_length_c   10.14333732
_cell_angle_alpha   90.08970646
_cell_angle_beta   90.00000015
_cell_angle_gamma   60.06226179
_symmetry_Int_Tables_number   1
_chemical_formula_structural   GdAl17N18
_chemical_formula_sum   'Gd2 Al34 N36'
_cell_volume   793.65162065
_cell_formula_units_Z   2
loop_
 _symmetry_equiv_pos_site_id
 _symmetry_equiv_pos_as_xyz
  1  'x, y, z'
loop_
 _atom_site_type_symbol
 _atom_site_label
 _atom_site_symmetry_multiplicity
 _atom_site_fract_x
 _atom_site_fract_y
 _atom_site_fract_z
 _atom_site_occupancy
  Al  Al0  1  0.11122737  0.09421193  0.40265915  1
  Al  Al1  1  0.22189193  0.20109489  0.15197827  1
  Al  Al2  1  0.77737548  0.09385971  0.90395401  1
  Al  Al3  1  0.89067294  0.20238773  0.65404942  1
  Al  Al4  1  0.44450876  0.09382689  0.40279354  1
  Al  Al5  1  0.55933719  0.19799229  0.15296975  1
  Al  Al6  1  0.11099538  0.09467593  0.90443533  1
  Al  Al7  1  0.22360600  0.20238774  0.65404942  1
  Al  Al8  1  0.77833100  0.09382689  0.40279354  1
  Al  Al9  1  0.89367986  0.20109489  0.15197827  1
  Al  Al10  1  0.44543148  0.09385971  0.90395400  1
  Al  Al11  1  0.55825911  0.20014846  0.65452354  1
  Al  Al12  1  0.11058064  0.42453646  0.41291478  1
  Al  Al13  1  0.78356053  0.42409563  0.89781199  1
  Al  Al14  1  0.88828968  0.54008735  0.65526983  1
  Al  Al15  1  0.44629802  0.42407065  0.42161217  1
  Al  Al16  1  0.10901054  0.42409564  0.89781199  1
  Al  Al17  1  0.21968258  0.53994167  0.65468653  1
  Al  Al18  1  0.78154960  0.42453644  0.41291478  1
  Al  Al19  1  0.89207522  0.53251624  0.15146806  1
  Al  Al20  1  0.44743600  0.42179469  0.89165942  1
  Al  Al21  1  0.55704246  0.53994167  0.65468653  1
  Al  Al22  1  0.11004076  0.76350854  0.41276701  1
  Al  Al23  1  0.21607325  0.88452019  0.15129691  1
  Al  Al24  1  0.77786633  0.76093401  0.90314461  1
  Al  Al25  1  0.88615217  0.87359114  0.65396688  1
  Al  Al26  1  0.44311739  0.76350853  0.41276701  1
  Al  Al27  1  0.55348064  0.87803537  0.15242518  1
  Al  Al28  1  0.10663275  0.76948713  0.89747207  1
  Al  Al29  1  0.22046273  0.87574123  0.65457635  1
  Al  Al30  1  0.77852320  0.75962028  0.40217362  1
  Al  Al31  1  0.88515069  0.87803538  0.15242519  1
  Al  Al32  1  0.44054681  0.76948713  0.89747207  1
  Al  Al33  1  0.55692337  0.87359114  0.65396688  1
  Gd  Gd34  1  0.21673386  0.54154313  0.15360621  1
  Gd  Gd35  1  0.55838969  0.54154314  0.15360621  1
  N  N36  1  0.22228582  0.20591522  0.34397631  1
  N  N37  1  0.10975781  0.09715107  0.09396090  1
  N  N38  1  0.89024406  0.20184433  0.84249238  1
  N  N39  1  0.77841576  0.09356710  0.59211279  1
  N  N40  1  0.55479992  0.20706681  0.34550320  1
  N  N41  1  0.44469736  0.09490214  0.09498862  1
  N  N42  1  0.22457829  0.20184435  0.84249238  1
  N  N43  1  0.11106593  0.09453481  0.59184266  1
  N  N44  1  0.88846564  0.20591521  0.34397631  1
  N  N45  1  0.77706718  0.09490214  0.09498863  1
  N  N46  1  0.55895136  0.19876397  0.84059169  1
  N  N47  1  0.44468380  0.09356710  0.59211280  1
  N  N48  1  0.22340505  0.53752261  0.37598660  1
  N  N49  1  0.10094503  0.41083951  0.08321509  1
  N  N50  1  0.88756907  0.54152855  0.84187547  1
  N  N51  1  0.78179007  0.42490310  0.60082439  1
  N  N52  1  0.55573903  0.53752260  0.37598660  1
  N  N53  1  0.45904484  0.39857700  0.07426599  1
  N  N54  1  0.21853126  0.54168351  0.84740844  1
  N  N55  1  0.10997353  0.42490311  0.60082438  1
  N  N56  1  0.89025433  0.53615804  0.34442913  1
  N  N57  1  0.80488215  0.41083951  0.08321510  1
  N  N58  1  0.55645193  0.54168352  0.84740845  1
  N  N59  1  0.44624609  0.42417452  0.60895316  1
  N  N60  1  0.22326733  0.87013204  0.34464758  1
  N  N61  1  0.09500256  0.79439268  0.08287855  1
  N  N62  1  0.88493261  0.87388508  0.84235518  1
  N  N63  1  0.77819444  0.76027779  0.59217322  1
  N  N64  1  0.55551726  0.87045384  0.34382045  1
  N  N65  1  0.42727146  0.79439268  0.08287855  1
  N  N66  1  0.22007942  0.87650785  0.84038379  1
  N  N67  1  0.10892559  0.76467320  0.60057305  1
  N  N68  1  0.89069560  0.87045383  0.34382045  1
  N  N69  1  0.77912459  0.75841750  0.09545714  1
  N  N70  1  0.55784899  0.87388508  0.84235518  1
  N  N71  1  0.44306790  0.76467319  0.60057305  1
