# generated using pymatgen
data_GdAl17N18
_symmetry_space_group_name_H-M   'P 1'
_cell_length_a   9.49323354
_cell_length_b   9.51114039
_cell_length_c   10.14334133
_cell_angle_alpha   89.91029051
_cell_angle_beta   89.99999995
_cell_angle_gamma   60.06226117
_symmetry_Int_Tables_number   1
_chemical_formula_structural   GdAl17N18
_chemical_formula_sum   'Gd2 Al34 N36'
_cell_volume   793.65151199
_cell_formula_units_Z   2
loop_
 _symmetry_equiv_pos_site_id
 _symmetry_equiv_pos_as_xyz
  1  'x, y, z'
loop_
 _atom_site_type_symbol
 _atom_site_label
 _atom_site_symmetry_multiplicity
 _atom_site_fract_x
 _atom_site_fract_y
 _atom_site_fract_z
 _atom_site_occupancy
  Al  Al0  1  0.11095411  0.09475846  0.31310992  1
  Al  Al1  1  0.22185071  0.20117762  0.06556863  1
  Al  Al2  1  0.77828969  0.09390965  0.81475382  1
  Al  Al3  1  0.89063184  0.20247010  0.56349624  1
  Al  Al4  1  0.44539033  0.09394219  0.31359157  1
  Al  Al5  1  0.55929572  0.19807521  0.06457591  1
  Al  Al6  1  0.11118601  0.09429464  0.81488868  1
  Al  Al7  1  0.22356473  0.20247010  0.56349625  1
  Al  Al8  1  0.77733415  0.09394218  0.31359157  1
  Al  Al9  1  0.89363835  0.20117762  0.06556864  1
  Al  Al10  1  0.44446730  0.09390966  0.81475382  1
  Al  Al11  1  0.55821788  0.20023090  0.56302196  1
  Al  Al12  1  0.10896945  0.42417815  0.31973261  1
  Al  Al13  1  0.78150828  0.42461929  0.80462944  1
  Al  Al14  1  0.88824817  0.54017035  0.56227442  1
  Al  Al15  1  0.44739471  0.42187726  0.32588461  1
  Al  Al16  1  0.11053910  0.42461931  0.80462944  1
  Al  Al17  1  0.21964113  0.54002442  0.56285683  1
  Al  Al18  1  0.78351908  0.42417815  0.31973261  1
  Al  Al19  1  0.89203397  0.53259873  0.06607898  1
  Al  Al20  1  0.44625654  0.42415358  0.79593115  1
  Al  Al21  1  0.55700114  0.54002442  0.56285683  1
  Al  Al22  1  0.10659144  0.76956962  0.32007280  1
  Al  Al23  1  0.21603213  0.88460242  0.06624996  1
  Al  Al24  1  0.77848196  0.75970274  0.81537410  1
  Al  Al25  1  0.88611046  0.87367407  0.56357921  1
  Al  Al26  1  0.44050562  0.76956962  0.32007280  1
  Al  Al27  1  0.55343935  0.87811790  0.06512170  1
  Al  Al28  1  0.10999951  0.76359127  0.80477742  1
  Al  Al29  1  0.22042112  0.87582445  0.56296879  1
  Al  Al30  1  0.77782491  0.76101684  0.31440153  1
  Al  Al31  1  0.88510944  0.87811790  0.06512169  1
  Al  Al32  1  0.44307591  0.76359126  0.80477742  1
  Al  Al33  1  0.55688214  0.87367407  0.56357921  1
  Gd  Gd34  1  0.21669220  0.54162589  0.06393779  1
  Gd  Gd35  1  0.55834857  0.54162590  0.06393778  1
  N  N36  1  0.22453704  0.20192682  0.37505310  1
  N  N37  1  0.10971655  0.09723357  0.12358498  1
  N  N38  1  0.88842387  0.20599850  0.87357047  1
  N  N39  1  0.77837431  0.09364998  0.62543395  1
  N  N40  1  0.55891000  0.19884666  0.37695369  1
  N  N41  1  0.44465620  0.09498480  0.12255752  1
  N  N42  1  0.22224429  0.20599852  0.87357047  1
  N  N43  1  0.11102457  0.09461752  0.62570432  1
  N  N44  1  0.89020283  0.20192680  0.37505310  1
  N  N45  1  0.77702566  0.09498480  0.12255752  1
  N  N46  1  0.55475829  0.20715007  0.87204292  1
  N  N47  1  0.44464237  0.09364998  0.62543395  1
  N  N48  1  0.21849002  0.54176607  0.37013587  1
  N  N49  1  0.10090397  0.41092219  0.13433060  1
  N  N50  1  0.89021316  0.53624037  0.87311738  1
  N  N51  1  0.78174871  0.42498593  0.61671995  1
  N  N52  1  0.55641061  0.54176607  0.37013587  1
  N  N53  1  0.45900314  0.39866039  0.14327843  1
  N  N54  1  0.22336379  0.53760526  0.84155774  1
  N  N55  1  0.10993205  0.42498593  0.61671996  1
  N  N56  1  0.88752777  0.54161115  0.37566924  1
  N  N57  1  0.80484052  0.41092219  0.13433060  1
  N  N58  1  0.55569764  0.53760524  0.84155773  1
  N  N59  1  0.44620462  0.42425744  0.60859054  1
  N  N60  1  0.22003812  0.87659043  0.37716139  1
  N  N61  1  0.09496141  0.79447490  0.13466719  1
  N  N62  1  0.89065472  0.87053628  0.87372630  1
  N  N63  1  0.77815318  0.76036031  0.62537356  1
  N  N64  1  0.55780765  0.87396769  0.37519073  1
  N  N65  1  0.42723037  0.79447490  0.13466719  1
  N  N66  1  0.22322625  0.87021418  0.87289893  1
  N  N67  1  0.10888431  0.76475591  0.61697159  1
  N  N68  1  0.88489133  0.87396769  0.37519073  1
  N  N69  1  0.77908327  0.75850014  0.12208940  1
  N  N70  1  0.55547568  0.87053629  0.87372630  1
  N  N71  1  0.44302646  0.76475590  0.61697159  1
