# generated using pymatgen
data_GdAl17N18
_symmetry_space_group_name_H-M   'P 1'
_cell_length_a   9.49323311
_cell_length_b   9.51113968
_cell_length_c   10.14333304
_cell_angle_alpha   90.08968449
_cell_angle_beta   90.00000016
_cell_angle_gamma   60.06226029
_symmetry_Int_Tables_number   1
_chemical_formula_structural   GdAl17N18
_chemical_formula_sum   'Gd2 Al34 N36'
_cell_volume   793.65076242
_cell_formula_units_Z   2
loop_
 _symmetry_equiv_pos_site_id
 _symmetry_equiv_pos_as_xyz
  1  'x, y, z'
loop_
 _atom_site_type_symbol
 _atom_site_label
 _atom_site_symmetry_multiplicity
 _atom_site_fract_x
 _atom_site_fract_y
 _atom_site_fract_z
 _atom_site_occupancy
  Al  Al0  1  0.11122383  0.09421900  0.40000749  1
  Al  Al1  1  0.22188828  0.20110205  0.14932585  1
  Al  Al2  1  0.77737191  0.09386674  0.90130237  1
  Al  Al3  1  0.89066940  0.20239477  0.65139764  1
  Al  Al4  1  0.44450506  0.09383410  0.40014202  1
  Al  Al5  1  0.55933357  0.19799953  0.15031683  1
  Al  Al6  1  0.11099181  0.09468308  0.90178348  1
  Al  Al7  1  0.22360250  0.20239478  0.65139763  1
  Al  Al8  1  0.77832750  0.09383410  0.40014202  1
  Al  Al9  1  0.89367636  0.20110205  0.14932585  1
  Al  Al10  1  0.44542802  0.09386675  0.90130237  1
  Al  Al11  1  0.55825574  0.20015518  0.65187090  1
  Al  Al12  1  0.11057705  0.42454365  0.41026047  1
  Al  Al13  1  0.78355703  0.42410269  0.89515706  1
  Al  Al14  1  0.88828606  0.54009460  0.65261611  1
  Al  Al15  1  0.44629446  0.42407776  0.41895562  1
  Al  Al16  1  0.10900698  0.42410270  0.89515706  1
  Al  Al17  1  0.21967888  0.53994885  0.65203028  1
  Al  Al18  1  0.78154600  0.42454363  0.41026047  1
  Al  Al19  1  0.89207176  0.53252316  0.14881430  1
  Al  Al20  1  0.44743259  0.42180152  0.88900053  1
  Al  Al21  1  0.55703898  0.53994884  0.65203028  1
  Al  Al22  1  0.11003726  0.76351577  0.41011326  1
  Al  Al23  1  0.21606982  0.88452705  0.14864383  1
  Al  Al24  1  0.77786288  0.76094091  0.90049317  1
  Al  Al25  1  0.88614868  0.87359805  0.65131547  1
  Al  Al26  1  0.44311366  0.76351576  0.41011326  1
  Al  Al27  1  0.55347694  0.87804232  0.14977363  1
  Al  Al28  1  0.10662923  0.76949394  0.89481837  1
  Al  Al29  1  0.22045928  0.87574814  0.65192453  1
  Al  Al30  1  0.77851961  0.75962745  0.39952115  1
  Al  Al31  1  0.88514744  0.87804232  0.14977363  1
  Al  Al32  1  0.44054352  0.76949394  0.89481837  1
  Al  Al33  1  0.55691995  0.87359805  0.65131547  1
  Gd  Gd34  1  0.21673158  0.54154913  0.15094943  1
  Gd  Gd35  1  0.55838597  0.54154914  0.15094943  1
  N  N36  1  0.22228233  0.20592216  0.34132328  1
  N  N37  1  0.10975428  0.09715813  0.09130799  1
  N  N38  1  0.89024068  0.20185102  0.83983953  1
  N  N39  1  0.77841240  0.09357402  0.58946044  1
  N  N40  1  0.55479650  0.20707365  0.34284933  1
  N  N41  1  0.44469383  0.09490901  0.09233579  1
  N  N42  1  0.22457498  0.20185104  0.83983953  1
  N  N43  1  0.11106244  0.09454179  0.58919048  1
  N  N44  1  0.88846218  0.20592215  0.34132328  1
  N  N45  1  0.77706384  0.09490900  0.09233579  1
  N  N46  1  0.55894841  0.19876986  0.83793780  1
  N  N47  1  0.44468023  0.09357403  0.58946044  1
  N  N48  1  0.22340122  0.53753000  0.37333023  1
  N  N49  1  0.10094136  0.41084625  0.08056011  1
  N  N50  1  0.88756539  0.54153591  0.83922117  1
  N  N51  1  0.78178682  0.42490991  0.59816980  1
  N  N52  1  0.55573548  0.53752999  0.37333023  1
  N  N53  1  0.45904208  0.39858252  0.07160782  1
  N  N54  1  0.21852739  0.54169071  0.84475195  1
  N  N55  1  0.10996997  0.42490992  0.59816979  1
  N  N56  1  0.89025069  0.53616532  0.34177499  1
  N  N57  1  0.80487908  0.41084625  0.08056012  1
  N  N58  1  0.55644860  0.54169072  0.84475195  1
  N  N59  1  0.44624276  0.42418117  0.60629707  1
  N  N60  1  0.22326354  0.87013962  0.34199392  1
  N  N61  1  0.09499885  0.79439979  0.08022463  1
  N  N62  1  0.88492894  0.87389211  0.83970279  1
  N  N63  1  0.77819075  0.76028517  0.58952031  1
  N  N64  1  0.55551359  0.87046138  0.34116788  1
  N  N65  1  0.42726806  0.79439979  0.08022463  1
  N  N66  1  0.22007586  0.87651497  0.83773116  1
  N  N67  1  0.10892189  0.76468063  0.59791901  1
  N  N68  1  0.89069173  0.87046137  0.34116788  1
  N  N69  1  0.77912099  0.75842470  0.09280429  1
  N  N70  1  0.55784563  0.87389211  0.83970279  1
  N  N71  1  0.44306417  0.76468062  0.59791901  1
