# generated using pymatgen
data_GdAl17N18
_symmetry_space_group_name_H-M   'P 1'
_cell_length_a   9.83825670
_cell_length_b   9.88464879
_cell_length_c   9.14336902
_cell_angle_alpha   90.02756074
_cell_angle_beta   90.00000251
_cell_angle_gamma   60.15515319
_symmetry_Int_Tables_number   1
_chemical_formula_structural   GdAl17N18
_chemical_formula_sum   'Gd2 Al34 N36'
_cell_volume   771.24626250
_cell_formula_units_Z   2
loop_
 _symmetry_equiv_pos_site_id
 _symmetry_equiv_pos_as_xyz
  1  'x, y, z'
loop_
 _atom_site_type_symbol
 _atom_site_label
 _atom_site_symmetry_multiplicity
 _atom_site_fract_x
 _atom_site_fract_y
 _atom_site_fract_z
 _atom_site_occupancy
  Al  Al0  1  0.10967667  0.09731345  0.37372244  1
  Al  Al1  1  0.22233981  0.20131789  0.12320952  1
  Al  Al2  1  0.77694266  0.09300527  0.87550377  1
  Al  Al3  1  0.89115073  0.20064756  0.62482550  1
  Al  Al4  1  0.44397755  0.09320963  0.37327994  1
  Al  Al5  1  0.56045923  0.19574819  0.12760250  1
  Al  Al6  1  0.11125787  0.09415111  0.87598966  1
  Al  Al7  1  0.22486844  0.20064772  0.62482548  1
  Al  Al8  1  0.77947946  0.09320975  0.37327981  1
  Al  Al9  1  0.89300928  0.20131779  0.12320949  1
  Al  Al10  1  0.44671880  0.09300522  0.87550364  1
  Al  Al11  1  0.55999932  0.19666816  0.62158955  1
  Al  Al12  1  0.11050484  0.42307102  0.38433322  1
  Al  Al13  1  0.78509140  0.42314858  0.86255933  1
  Al  Al14  1  0.88750032  0.54166624  0.62393462  1
  Al  Al15  1  0.44682044  0.42302580  0.39231711  1
  Al  Al16  1  0.10842682  0.42314872  0.86255959  1
  Al  Al17  1  0.21845631  0.54121153  0.61754093  1
  Al  Al18  1  0.78309095  0.42307094  0.38433347  1
  Al  Al19  1  0.89246854  0.53172975  0.12423923  1
  Al  Al20  1  0.44891648  0.41883370  0.85209990  1
  Al  Al21  1  0.55699890  0.54121148  0.61754094  1
  Al  Al22  1  0.10757163  0.76674462  0.38367444  1
  Al  Al23  1  0.21554746  0.88557151  0.12657169  1
  Al  Al24  1  0.77822006  0.76022636  0.87612950  1
  Al  Al25  1  0.88435079  0.87386958  0.62445971  1
  Al  Al26  1  0.44235022  0.76674449  0.38367420  1
  Al  Al27  1  0.55321826  0.87738468  0.12369662  1
  Al  Al28  1  0.10578393  0.77223274  0.86279740  1
  Al  Al29  1  0.21907131  0.87852406  0.62116172  1
  Al  Al30  1  0.77843000  0.75980641  0.37076697  1
  Al  Al31  1  0.88606343  0.87738475  0.12369668  1
  Al  Al32  1  0.43864985  0.77223251  0.86279766  1
  Al  Al33  1  0.55844612  0.87386942  0.62445976  1
  Gd  Gd34  1  0.21738880  0.54195822  0.11162055  1
  Gd  Gd35  1  0.55732029  0.54195774  0.11162054  1
  N  N36  1  0.22261365  0.20601996  0.33604520  1
  N  N37  1  0.10977271  0.09712150  0.08725958  1
  N  N38  1  0.89058192  0.20016674  0.83361781  1
  N  N39  1  0.78001586  0.09202964  0.58197797  1
  N  N40  1  0.55542834  0.20581000  0.34071261  1
  N  N41  1  0.44568180  0.09378603  0.08789294  1
  N  N42  1  0.22591806  0.20016696  0.83361785  1
  N  N43  1  0.10984162  0.09698356  0.58206773  1
  N  N44  1  0.88803324  0.20601998  0.33604518  1
  N  N45  1  0.77719879  0.09378614  0.08789308  1
  N  N46  1  0.56048049  0.19570581  0.82793833  1
  N  N47  1  0.44462126  0.09202954  0.58197811  1
  N  N48  1  0.22213654  0.53922256  0.36715985  1
  N  N49  1  0.10074763  0.41014168  0.07502559  1
  N  N50  1  0.88685934  0.54294826  0.83123996  1
  N  N51  1  0.78298339  0.42337248  0.59379654  1
  N  N52  1  0.55530782  0.53922234  0.36715985  1
  N  N53  1  0.46104051  0.39458567  0.06460943  1
  N  N54  1  0.21738665  0.54310992  0.83423410  1
  N  N55  1  0.11031085  0.42337255  0.59379631  1
  N  N56  1  0.89030903  0.53604862  0.33850357  1
  N  N57  1  0.80577788  0.41014142  0.07502523  1
  N  N58  1  0.55617029  0.54310982  0.83423410  1
  N  N59  1  0.44704836  0.42256990  0.60213242  1
  N  N60  1  0.22153021  0.87360600  0.34114778  1
  N  N61  1  0.09521689  0.79664997  0.07519737  1
  N  N62  1  0.88333120  0.87412101  0.83364718  1
  N  N63  1  0.77810947  0.76044746  0.58096166  1
  N  N64  1  0.55585411  0.87151555  0.33549162  1
  N  N65  1  0.42479967  0.79664954  0.07519768  1
  N  N66  1  0.21884256  0.87898157  0.82731731  1
  N  N67  1  0.10694580  0.76657777  0.59252463  1
  N  N68  1  0.88929681  0.87151557  0.33549168  1
  N  N69  1  0.77969715  0.75727210  0.08917902  1
  N  N70  1  0.55921426  0.87412085  0.83364728  1
  N  N71  1  0.44314293  0.76657763  0.59252442  1
