# generated using pymatgen
data_GdAl17N18
_symmetry_space_group_name_H-M   'P 1'
_cell_length_a   9.76594081
_cell_length_b   9.80919907
_cell_length_c   9.35879771
_cell_angle_alpha   90.03541281
_cell_angle_beta   90.00000240
_cell_angle_gamma   60.14579124
_symmetry_Int_Tables_number   1
_chemical_formula_structural   GdAl17N18
_chemical_formula_sum   'Gd2 Al34 N36'
_cell_volume   777.56080761
_cell_formula_units_Z   2
loop_
 _symmetry_equiv_pos_site_id
 _symmetry_equiv_pos_as_xyz
  1  'x, y, z'
loop_
 _atom_site_type_symbol
 _atom_site_label
 _atom_site_symmetry_multiplicity
 _atom_site_fract_x
 _atom_site_fract_y
 _atom_site_fract_z
 _atom_site_occupancy
  Al  Al0  1  0.10989444  0.09687786  0.37635495  1
  Al  Al1  1  0.22218552  0.20136959  0.12615887  1
  Al  Al2  1  0.77695092  0.09305729  0.87876531  1
  Al  Al3  1  0.89113671  0.20080319  0.62786262  1
  Al  Al4  1  0.44400311  0.09333412  0.37600088  1
  Al  Al5  1  0.56016959  0.19632745  0.12982934  1
  Al  Al6  1  0.11122397  0.09421886  0.87929878  1
  Al  Al7  1  0.22472679  0.20080332  0.62786261  1
  Al  Al8  1  0.77932941  0.09333421  0.37600076  1
  Al  Al9  1  0.89311180  0.20136952  0.12615883  1
  Al  Al10  1  0.44665850  0.09305726  0.87876520  1
  Al  Al11  1  0.55996070  0.19674535  0.62508213  1
  Al  Al12  1  0.11067440  0.42351865  0.38696533  1
  Al  Al13  1  0.78517218  0.42315181  0.86681160  1
  Al  Al14  1  0.88755056  0.54156573  0.62727347  1
  Al  Al15  1  0.44655234  0.42356199  0.39523156  1
  Al  Al16  1  0.10834277  0.42315191  0.86681184  1
  Al  Al17  1  0.21832216  0.54125996  0.62209683  1
  Al  Al18  1  0.78247371  0.42351859  0.38696552  1
  Al  Al19  1  0.89261164  0.53144351  0.12702350  1
  Al  Al20  1  0.44886049  0.41894569  0.85574377  1
  Al  Al21  1  0.55708460  0.54125991  0.62209683  1
  Al  Al22  1  0.10817045  0.76590083  0.38629690  1
  Al  Al23  1  0.21559375  0.88547900  0.12867535  1
  Al  Al24  1  0.77814919  0.76036816  0.87906273  1
  Al  Al25  1  0.88452050  0.87388267  0.62751225  1
  Al  Al26  1  0.44259525  0.76590073  0.38629672  1
  Al  Al27  1  0.55310825  0.87742701  0.12661940  1
  Al  Al28  1  0.10558074  0.77235680  0.86700839  1
  Al  Al29  1  0.21921181  0.87824308  0.62488443  1
  Al  Al30  1  0.77845636  0.75975376  0.37386266  1
  Al  Al31  1  0.88613119  0.87742707  0.12661943  1
  Al  Al32  1  0.43872903  0.77235663  0.86700861  1
  Al  Al33  1  0.55826337  0.87388254  0.62751229  1
  Gd  Gd34  1  0.21768389  0.54166795  0.11504660  1
  Gd  Gd35  1  0.55731537  0.54166756  0.11504659  1
  N  N36  1  0.22243835  0.20625306  0.33264503  1
  N  N37  1  0.10975694  0.09715299  0.08402761  1
  N  N38  1  0.89060387  0.20022130  0.83063224  1
  N  N39  1  0.77984812  0.09220986  0.57890773  1
  N  N40  1  0.55513859  0.20638947  0.33681123  1
  N  N41  1  0.44558630  0.09391210  0.08472568  1
  N  N42  1  0.22584152  0.20022149  0.83063226  1
  N  N43  1  0.11002799  0.09661077  0.57897472  1
  N  N44  1  0.88797539  0.20625308  0.33264501  1
  N  N45  1  0.77716821  0.09391218  0.08472580  1
  N  N46  1  0.56058559  0.19549558  0.82541735  1
  N  N47  1  0.44460873  0.09220979  0.57890785  1
  N  N48  1  0.22249149  0.53893858  0.36333100  1
  N  N49  1  0.10059232  0.40989953  0.07126465  1
  N  N50  1  0.88685501  0.54295688  0.82846758  1
  N  N51  1  0.78273264  0.42365459  0.59044416  1
  N  N52  1  0.55523679  0.53893842  0.36333100  1
  N  N53  1  0.46127033  0.39412604  0.05980267  1
  N  N54  1  0.21720467  0.54318953  0.83348486  1
  N  N55  1  0.11027947  0.42365464  0.59044397  1
  N  N56  1  0.89037719  0.53591228  0.33469338  1
  N  N57  1  0.80617525  0.40989932  0.07126436  1
  N  N58  1  0.55627262  0.54318946  0.83348486  1
  N  N59  1  0.44684761  0.42297141  0.59969856  1
  N  N60  1  0.22183319  0.87300011  0.33671506  1
  N  N61  1  0.09490493  0.79698652  0.07125658  1
  N  N62  1  0.88334047  0.87419662  0.83053522  1
  N  N63  1  0.77810516  0.76045616  0.57807273  1
  N  N64  1  0.55568067  0.87127711  0.33216240  1
  N  N65  1  0.42477512  0.79698617  0.07125682  1
  N  N66  1  0.21887772  0.87891127  0.82505553  1
  N  N67  1  0.10724982  0.76631500  0.58927043  1
  N  N68  1  0.88970877  0.87127712  0.33216244  1
  N  N69  1  0.77968653  0.75729338  0.08574896  1
  N  N70  1  0.55912944  0.87419650  0.83053529  1
  N  N71  1  0.44310173  0.76631489  0.58927025  1
