# generated using pymatgen
data_GdAl17N18
_symmetry_space_group_name_H-M   'P 1'
_cell_length_a   10.02823254
_cell_length_b   10.08028743
_cell_length_c   8.57445473
_cell_angle_alpha   90.01730916
_cell_angle_beta   90.00000386
_cell_angle_gamma   60.17069991
_symmetry_Int_Tables_number   1
_chemical_formula_structural   GdAl17N18
_chemical_formula_sum   'Gd2 Al34 N36'
_cell_volume   751.93255007
_cell_formula_units_Z   2
loop_
 _symmetry_equiv_pos_site_id
 _symmetry_equiv_pos_as_xyz
  1  'x, y, z'
loop_
 _atom_site_type_symbol
 _atom_site_label
 _atom_site_symmetry_multiplicity
 _atom_site_fract_x
 _atom_site_fract_y
 _atom_site_fract_z
 _atom_site_occupancy
  Al  Al0  1  0.11056527  0.09553680  0.35314117  1
  Al  Al1  1  0.22323924  0.20009798  0.10075738  1
  Al  Al2  1  0.77863111  0.09329084  0.84797724  1
  Al  Al3  1  0.89021511  0.20203903  0.60051188  1
  Al  Al4  1  0.44589706  0.09279708  0.35212499  1
  Al  Al5  1  0.56160162  0.19346445  0.09731211  1
  Al  Al6  1  0.10999552  0.09667677  0.84753734  1
  Al  Al7  1  0.22441264  0.20203898  0.60051147  1
  Al  Al8  1  0.77797234  0.09279727  0.35212556  1
  Al  Al9  1  0.89333101  0.20009692  0.10075756  1
  Al  Al10  1  0.44474503  0.09329052  0.84797741  1
  Al  Al11  1  0.55907686  0.19851395  0.59976208  1
  Al  Al12  1  0.10923451  0.42285434  0.36073640  1
  Al  Al13  1  0.78450152  0.42251242  0.84117789  1
  Al  Al14  1  0.88832324  0.54002087  0.60092730  1
  Al  Al15  1  0.44894772  0.41877045  0.36402430  1
  Al  Al16  1  0.10965410  0.42251237  0.84117722  1
  Al  Al17  1  0.21923596  0.54068816  0.60184551  1
  Al  Al18  1  0.78457872  0.42285435  0.36073678  1
  Al  Al19  1  0.89119027  0.53428710  0.10097946  1
  Al  Al20  1  0.44756650  0.42153352  0.83076467  1
  Al  Al21  1  0.55674325  0.54068797  0.60184549  1
  Al  Al22  1  0.10638951  0.77046278  0.36111079  1
  Al  Al23  1  0.21494204  0.88678229  0.09929795  1
  Al  Al24  1  0.77848517  0.75969513  0.85015869  1
  Al  Al25  1  0.88549355  0.87329742  0.60094621  1
  Al  Al26  1  0.43981250  0.77046207  0.36111021  1
  Al  Al27  1  0.55459856  0.87767885  0.10047216  1
  Al  Al28  1  0.10657136  0.76967746  0.84148400  1
  Al  Al29  1  0.21953621  0.87759514  0.60181014  1
  Al  Al30  1  0.77838778  0.75988980  0.35206720  1
  Al  Al31  1  0.88438723  0.87767940  0.10047221  1
  Al  Al32  1  0.44041664  0.76967648  0.84148380  1
  Al  Al33  1  0.55787447  0.87329834  0.60094577  1
  Gd  Gd34  1  0.21639506  0.54285120  0.10363500  1
  Gd  Gd35  1  0.55742205  0.54284984  0.10363509  1
  N  N36  1  0.22495122  0.20227883  0.36140817  1
  N  N37  1  0.10945420  0.09775980  0.10854131  1
  N  N38  1  0.88920803  0.20364242  0.85581127  1
  N  N39  1  0.77969634  0.09207846  0.61028875  1
  N  N40  1  0.55944430  0.19777804  0.36700206  1
  N  N41  1  0.44540845  0.09342812  0.10792224  1
  N  N42  1  0.22381677  0.20364283  0.85581162  1
  N  N43  1  0.10984003  0.09698713  0.60887679  1
  N  N44  1  0.88943718  0.20227876  0.36140800  1
  N  N45  1  0.77783049  0.09342829  0.10792228  1
  N  N46  1  0.55671549  0.20323597  0.85424528  1
  N  N47  1  0.44489212  0.09207883  0.61028906  1
  N  N48  1  0.21845587  0.54202242  0.37408644  1
  N  N49  1  0.10151141  0.41100219  0.11054289  1
  N  N50  1  0.88900630  0.53865555  0.85387686  1
  N  N51  1  0.78311063  0.42332075  0.60612199  1
  N  N52  1  0.55618896  0.54202176  0.37408644  1
  N  N53  1  0.45969808  0.39727059  0.12214733  1
  N  N54  1  0.22121275  0.54016595  0.83503245  1
  N  N55  1  0.11023598  0.42332068  0.60612182  1
  N  N56  1  0.88827892  0.54010959  0.36252505  1
  N  N57  1  0.80415482  0.41100144  0.11054188  1
  N  N58  1  0.55528860  0.54016553  0.83503245  1
  N  N59  1  0.44755175  0.42156354  0.60292771  1
  N  N60  1  0.21975568  0.87715383  0.36615587  1
  N  N61  1  0.09583823  0.79451574  0.11003752  1
  N  N62  1  0.88642839  0.87274263  0.85649512  1
  N  N63  1  0.77840373  0.75985800  0.60912977  1
  N  N64  1  0.55798538  0.87323143  0.36064667  1
  N  N65  1  0.42631212  0.79451416  0.11003823  1
  N  N66  1  0.22004555  0.87657484  0.85110818  1
  N  N67  1  0.10707866  0.76679656  0.60668317  1
  N  N68  1  0.88544819  0.87323174  0.36064685  1
  N  N69  1  0.77947291  0.75771961  0.10738658  1
  N  N70  1  0.55749442  0.87274211  0.85649554  1
  N  N71  1  0.44279137  0.76679627  0.60668303  1
