# generated using pymatgen
data_GdAl17N18
_symmetry_space_group_name_H-M   'P 1'
_cell_length_a   9.81458090
_cell_length_b   9.85978159
_cell_length_c   9.21458806
_cell_angle_alpha   89.97772673
_cell_angle_beta   90.00000126
_cell_angle_gamma   60.15155040
_symmetry_Int_Tables_number   1
_chemical_formula_structural   GdAl17N18
_chemical_formula_sum   'Gd2 Al34 N36'
_cell_volume   773.40462361
_cell_formula_units_Z   2
loop_
 _symmetry_equiv_pos_site_id
 _symmetry_equiv_pos_as_xyz
  1  'x, y, z'
loop_
 _atom_site_type_symbol
 _atom_site_label
 _atom_site_symmetry_multiplicity
 _atom_site_fract_x
 _atom_site_fract_y
 _atom_site_fract_z
 _atom_site_occupancy
  Al  Al0  1  0.11125841  0.09414997  0.33208208  1
  Al  Al1  1  0.22219268  0.20133972  0.08485550  1
  Al  Al2  1  0.77941213  0.09332562  0.83504565  1
  Al  Al3  1  0.89107245  0.20072262  0.58315853  1
  Al  Al4  1  0.44672718  0.09297218  0.33226539  1
  Al  Al5  1  0.56032858  0.19600965  0.08073736  1
  Al  Al6  1  0.10973247  0.09720190  0.83426250  1
  Al  Al7  1  0.22487183  0.20072256  0.58315848  1
  Al  Al8  1  0.77696736  0.09297222  0.33226553  1
  Al  Al9  1  0.89313447  0.20133956  0.08485545  1
  Al  Al10  1  0.44392902  0.09332554  0.83504580  1
  Al  Al11  1  0.56011805  0.19643062  0.58629245  1
  Al  Al12  1  0.10837429  0.42318612  0.34499653  1
  Al  Al13  1  0.78290214  0.42323866  0.82383568  1
  Al  Al14  1  0.88751512  0.54163644  0.58393673  1
  Al  Al15  1  0.44894278  0.41878111  0.35631879  1
  Al  Al16  1  0.11052597  0.42323870  0.82383550  1
  Al  Al17  1  0.21821843  0.54136057  0.59005512  1
  Al  Al18  1  0.78510640  0.42318604  0.34499634  1
  Al  Al19  1  0.89246929  0.53172827  0.08384447  1
  Al  Al20  1  0.44671313  0.42324045  0.81529947  1
  Al  Al21  1  0.55708788  0.54136040  0.59005513  1
  Al  Al22  1  0.10571245  0.77224137  0.34468714  1
  Al  Al23  1  0.21555547  0.88555560  0.08176859  1
  Al  Al24  1  0.77842087  0.75982474  0.83709776  1
  Al  Al25  1  0.88442756  0.87394536  0.58357733  1
  Al  Al26  1  0.43871269  0.77224125  0.34468726  1
  Al  Al27  1  0.55325216  0.87729697  0.08428773  1
  Al  Al28  1  0.10775899  0.76651508  0.82458442  1
  Al  Al29  1  0.21914314  0.87838024  0.58659209  1
  Al  Al30  1  0.77817582  0.76031488  0.33200235  1
  Al  Al31  1  0.88611723  0.87729708  0.08428766  1
  Al  Al32  1  0.44239245  0.76651499  0.82458431  1
  Al  Al33  1  0.55829364  0.87394534  0.58357726  1
  Gd  Gd34  1  0.21777209  0.54162830  0.09638695  1
  Gd  Gd35  1  0.55726645  0.54162820  0.09638696  1
  N  N36  1  0.22595426  0.20019716  0.37650872  1
  N  N37  1  0.10978360  0.09709960  0.12317435  1
  N  N38  1  0.88807811  0.20613641  0.87428933  1
  N  N39  1  0.77997689  0.09211096  0.62840393  1
  N  N40  1  0.56067777  0.19531117  0.38214180  1
  N  N41  1  0.44564437  0.09379058  0.12215557  1
  N  N42  1  0.22245223  0.20613655  0.87428937  1
  N  N43  1  0.10989300  0.09688081  0.62795130  1
  N  N44  1  0.89051544  0.20019718  0.37650876  1
  N  N45  1  0.77723174  0.09379063  0.12215570  1
  N  N46  1  0.55521061  0.20624558  0.86979903  1
  N  N47  1  0.44457893  0.09211088  0.62840405  1
  N  N48  1  0.21717158  0.54322713  0.37510513  1
  N  N49  1  0.10066509  0.41010394  0.13536233  1
  N  N50  1  0.89029078  0.53608532  0.87193209  1
  N  N51  1  0.78292731  0.42347737  0.61648446  1
  N  N52  1  0.55626819  0.54322698  0.37510513  1
  N  N53  1  0.46122982  0.39420703  0.14688388  1
  N  N54  1  0.22234428  0.53910076  0.84310160  1
  N  N55  1  0.11026205  0.42347739  0.61648425  1
  N  N56  1  0.88685424  0.54295822  0.37881814  1
  N  N57  1  0.80589784  0.41010382  0.13536212  1
  N  N58  1  0.55522174  0.53910070  0.84310163  1
  N  N59  1  0.44699042  0.42268584  0.60732339  1
  N  N60  1  0.21889901  0.87886848  0.38253438  1
  N  N61  1  0.09517474  0.79663366  0.13515222  1
  N  N62  1  0.88939478  0.87143556  0.87475996  1
  N  N63  1  0.77808541  0.76049565  0.62905164  1
  N  N64  1  0.55911827  0.87417473  0.37655481  1
  N  N65  1  0.42485806  0.79663350  0.13515235  1
  N  N66  1  0.22157113  0.87352436  0.86952251  1
  N  N67  1  0.10702062  0.76656005  0.61780028  1
  N  N68  1  0.88337352  0.87417475  0.37655488  1
  N  N69  1  0.77967508  0.75731627  0.12122111  1
  N  N70  1  0.55583618  0.87143544  0.87476003  1
  N  N71  1  0.44308587  0.76655995  0.61780015  1
