# generated using pymatgen
data_GdAl17N18
_symmetry_space_group_name_H-M   'P 1'
_cell_length_a   9.49323124
_cell_length_b   9.51113880
_cell_length_c   10.14333415
_cell_angle_alpha   89.91031158
_cell_angle_beta   89.99999990
_cell_angle_gamma   60.06226368
_symmetry_Int_Tables_number   1
_chemical_formula_structural   GdAl17N18
_chemical_formula_sum   'Gd2 Al34 N36'
_cell_volume   793.65064632
_cell_formula_units_Z   2
loop_
 _symmetry_equiv_pos_site_id
 _symmetry_equiv_pos_as_xyz
  1  'x, y, z'
loop_
 _atom_site_type_symbol
 _atom_site_label
 _atom_site_symmetry_multiplicity
 _atom_site_fract_x
 _atom_site_fract_y
 _atom_site_fract_z
 _atom_site_occupancy
  Al  Al0  1  0.11096044  0.09474579  0.31801818  1
  Al  Al1  1  0.22185700  0.20116480  0.07047710  1
  Al  Al2  1  0.77829625  0.09389681  0.81966124  1
  Al  Al3  1  0.89063816  0.20245730  0.56840426  1
  Al  Al4  1  0.44539681  0.09392935  0.31849935  1
  Al  Al5  1  0.55930213  0.19806240  0.06948495  1
  Al  Al6  1  0.11119245  0.09428176  0.81979609  1
  Al  Al7  1  0.22357120  0.20245731  0.56840427  1
  Al  Al8  1  0.77734050  0.09392935  0.31849935  1
  Al  Al9  1  0.89364487  0.20116480  0.07047710  1
  Al  Al10  1  0.44447359  0.09389681  0.81966124  1
  Al  Al11  1  0.55822452  0.20021761  0.56793099  1
  Al  Al12  1  0.10897584  0.42416532  0.32464397  1
  Al  Al13  1  0.78151467  0.42460645  0.80954055  1
  Al  Al14  1  0.88825461  0.54015748  0.56718469  1
  Al  Al15  1  0.44740129  0.42186410  0.33080057  1
  Al  Al16  1  0.11054556  0.42460647  0.80954055  1
  Al  Al17  1  0.21964745  0.54001159  0.56777018  1
  Al  Al18  1  0.78352553  0.42416531  0.32464397  1
  Al  Al19  1  0.89204044  0.53258577  0.07098870  1
  Al  Al20  1  0.44626298  0.42414071  0.80084480  1
  Al  Al21  1  0.55700764  0.54001159  0.56777018  1
  Al  Al22  1  0.10659785  0.76955660  0.32498301  1
  Al  Al23  1  0.21603856  0.88458955  0.07115919  1
  Al  Al24  1  0.77848837  0.75968992  0.82028248  1
  Al  Al25  1  0.88611709  0.87366088  0.56848675  1
  Al  Al26  1  0.44051223  0.76955660  0.32498302  1
  Al  Al27  1  0.55344564  0.87810489  0.07002924  1
  Al  Al28  1  0.11000595  0.76357851  0.80968789  1
  Al  Al29  1  0.22042771  0.87581127  0.56787708  1
  Al  Al30  1  0.77783145  0.76100377  0.31930900  1
  Al  Al31  1  0.88511616  0.87810490  0.07002924  1
  Al  Al32  1  0.44308222  0.76357851  0.80968789  1
  Al  Al33  1  0.55688871  0.87366088  0.56848675  1
  Gd  Gd34  1  0.21670016  0.54161191  0.06885165  1
  Gd  Gd35  1  0.55835460  0.54161192  0.06885164  1
  N  N36  1  0.22454370  0.20191369  0.37996223  1
  N  N37  1  0.10972294  0.09722080  0.12849431  1
  N  N38  1  0.88843058  0.20598525  0.87847964  1
  N  N39  1  0.77838109  0.09363675  0.63034228  1
  N  N40  1  0.55891708  0.19883251  0.38186396  1
  N  N41  1  0.44466265  0.09497168  0.12746634  1
  N  N42  1  0.22225082  0.20598527  0.87847963  1
  N  N43  1  0.11103103  0.09460460  0.63061235  1
  N  N44  1  0.89020930  0.20191368  0.37996223  1
  N  N45  1  0.77703234  0.09497167  0.12746634  1
  N  N46  1  0.55476493  0.20713679  0.87695278  1
  N  N47  1  0.44464882  0.09363676  0.63034228  1
  N  N48  1  0.21849607  0.54175340  0.37504928  1
  N  N49  1  0.10091021  0.41090901  0.13924170  1
  N  N50  1  0.89021948  0.53622773  0.87802767  1
  N  N51  1  0.78175545  0.42497272  0.62163140  1
  N  N52  1  0.55641722  0.54175340  0.37504929  1
  N  N53  1  0.45901063  0.39864542  0.14819360  1
  N  N54  1  0.22336990  0.53759272  0.84647102  1
  N  N55  1  0.10993852  0.42497272  0.62163140  1
  N  N56  1  0.88753406  0.54159856  0.38057985  1
  N  N57  1  0.80484745  0.41090901  0.13924170  1
  N  N58  1  0.55570407  0.53759270  0.84647101  1
  N  N59  1  0.44621136  0.42424396  0.61350378  1
  N  N60  1  0.22004447  0.87657774  0.38207047  1
  N  N61  1  0.09496757  0.79446225  0.13957743  1
  N  N62  1  0.89066067  0.87052388  0.87863503  1
  N  N63  1  0.77815952  0.76034764  0.63028245  1
  N  N64  1  0.55781428  0.87395482  0.38009928  1
  N  N65  1  0.42723686  0.79446225  0.13957743  1
  N  N66  1  0.22323234  0.87020201  0.87780872  1
  N  N67  1  0.10889060  0.76474334  0.62188236  1
  N  N68  1  0.88489757  0.87395482  0.38009928  1
  N  N69  1  0.77908966  0.75848736  0.12699815  1
  N  N70  1  0.55548213  0.87052389  0.87863503  1
  N  N71  1  0.44303274  0.76474333  0.62188236  1
