# generated using pymatgen
data_GdAl17N18
_symmetry_space_group_name_H-M   'P 1'
_cell_length_a   9.49323505
_cell_length_b   9.51114138
_cell_length_c   10.14333732
_cell_angle_alpha   90.08972110
_cell_angle_beta   90.00000017
_cell_angle_gamma   60.06225942
_symmetry_Int_Tables_number   1
_chemical_formula_structural   GdAl17N18
_chemical_formula_sum   'Gd2 Al34 N36'
_cell_volume   793.65139254
_cell_formula_units_Z   2
loop_
 _symmetry_equiv_pos_site_id
 _symmetry_equiv_pos_as_xyz
  1  'x, y, z'
loop_
 _atom_site_type_symbol
 _atom_site_label
 _atom_site_symmetry_multiplicity
 _atom_site_fract_x
 _atom_site_fract_y
 _atom_site_fract_z
 _atom_site_occupancy
  Al  Al0  1  0.11122913  0.09420841  0.40393632  1
  Al  Al1  1  0.22189370  0.20109165  0.15325640  1
  Al  Al2  1  0.77737710  0.09385626  0.90523356  1
  Al  Al3  1  0.89067493  0.20238394  0.65532884  1
  Al  Al4  1  0.44451038  0.09382348  0.40407122  1
  Al  Al5  1  0.55933867  0.19798932  0.15424923  1
  Al  Al6  1  0.11099710  0.09467250  0.90571519  1
  Al  Al7  1  0.22360779  0.20238396  0.65532884  1
  Al  Al8  1  0.77833280  0.09382348  0.40407122  1
  Al  Al9  1  0.89368133  0.20109165  0.15325640  1
  Al  Al10  1  0.44543331  0.09385627  0.90523356  1
  Al  Al11  1  0.55826092  0.20014482  0.65580310  1
  Al  Al12  1  0.11058220  0.42453312  0.41419562  1
  Al  Al13  1  0.78356210  0.42409216  0.89909247  1
  Al  Al14  1  0.88829122  0.54008427  0.65655068  1
  Al  Al15  1  0.44629964  0.42406740  0.42289385  1
  Al  Al16  1  0.10901244  0.42409217  0.89909246  1
  Al  Al17  1  0.21968418  0.53993831  0.65596827  1
  Al  Al18  1  0.78155138  0.42453310  0.41419562  1
  Al  Al19  1  0.89207697  0.53251274  0.15274602  1
  Al  Al20  1  0.44743770  0.42179130  0.89294041  1
  Al  Al21  1  0.55704421  0.53993831  0.65596828  1
  Al  Al22  1  0.11004263  0.76350503  0.41404766  1
  Al  Al23  1  0.21607511  0.88451648  0.15257500  1
  Al  Al24  1  0.77786788  0.76093091  0.90442355  1
  Al  Al25  1  0.88615348  0.87358799  0.65524587  1
  Al  Al26  1  0.44311904  0.76350502  0.41404766  1
  Al  Al27  1  0.55348233  0.87803196  0.15370332  1
  Al  Al28  1  0.10663437  0.76948373  0.89875222  1
  Al  Al29  1  0.22046419  0.87573832  0.65585628  1
  Al  Al30  1  0.77852505  0.75961656  0.40345087  1
  Al  Al31  1  0.88515241  0.87803197  0.15370333  1
  Al  Al32  1  0.44054859  0.76948373  0.89875222  1
  Al  Al33  1  0.55692521  0.87358799  0.65524587  1
  Gd  Gd34  1  0.21673511  0.54154006  0.15488704  1
  Gd  Gd35  1  0.55839152  0.54154007  0.15488704  1
  N  N36  1  0.22228738  0.20591230  0.34525461  1
  N  N37  1  0.10975952  0.09714764  0.09524012  1
  N  N38  1  0.89024584  0.20184079  0.84377203  1
  N  N39  1  0.77841737  0.09356386  0.59339114  1
  N  N40  1  0.55480140  0.20706386  0.34678222  1
  N  N41  1  0.44469920  0.09489889  0.09626760  1
  N  N42  1  0.22458005  0.20184081  0.84377202  1
  N  N43  1  0.11106766  0.09453134  0.59312075  1
  N  N44  1  0.88846699  0.20591229  0.34525461  1
  N  N45  1  0.77706859  0.09489889  0.09626761  1
  N  N46  1  0.55895300  0.19876070  0.84187141  1
  N  N47  1  0.44468543  0.09356387  0.59339114  1
  N  N48  1  0.22340691  0.53751902  0.37726720  1
  N  N49  1  0.10094697  0.41083619  0.08449447  1
  N  N50  1  0.88757076  0.54152517  0.84315588  1
  N  N51  1  0.78179179  0.42489979  0.60210517  1
  N  N52  1  0.55574077  0.53751901  0.37726721  1
  N  N53  1  0.45904612  0.39857445  0.07554664  1
  N  N54  1  0.21853300  0.54168010  0.84868926  1
  N  N55  1  0.10997512  0.42489980  0.60210517  1
  N  N56  1  0.89025626  0.53615418  0.34570767  1
  N  N57  1  0.80488353  0.41083619  0.08449448  1
  N  N58  1  0.55645361  0.54168011  0.84868927  1
  N  N59  1  0.44624767  0.42417137  0.61023454  1
  N  N60  1  0.22326939  0.87012792  0.34592610  1
  N  N61  1  0.09500430  0.79438909  0.08415780  1
  N  N62  1  0.88493428  0.87388174  0.84363438  1
  N  N63  1  0.77819624  0.76027419  0.59345150  1
  N  N64  1  0.55551876  0.87045009  0.34509875  1
  N  N65  1  0.42727330  0.79438909  0.08415780  1
  N  N66  1  0.22008111  0.87650446  0.84166369  1
  N  N67  1  0.10892738  0.76466975  0.60185354  1
  N  N68  1  0.89069784  0.87045009  0.34509876  1
  N  N69  1  0.77912625  0.75841418  0.09673568  1
  N  N70  1  0.55785065  0.87388175  0.84363438  1
  N  N71  1  0.44306956  0.76466975  0.60185353  1
