# generated using pymatgen
data_GdAl17N18
_symmetry_space_group_name_H-M   'P 1'
_cell_length_a   9.94548828
_cell_length_b   9.99528337
_cell_length_c   8.82087725
_cell_angle_alpha   89.99845082
_cell_angle_beta   90.00000249
_cell_angle_gamma   60.16468318
_symmetry_Int_Tables_number   1
_chemical_formula_structural   GdAl17N18
_chemical_formula_sum   'Gd2 Al34 N36'
_cell_volume   760.64485924
_cell_formula_units_Z   2
loop_
 _symmetry_equiv_pos_site_id
 _symmetry_equiv_pos_as_xyz
  1  'x, y, z'
loop_
 _atom_site_type_symbol
 _atom_site_label
 _atom_site_symmetry_multiplicity
 _atom_site_fract_x
 _atom_site_fract_y
 _atom_site_fract_z
 _atom_site_occupancy
  Al  Al0  1  0.11109391  0.09447911  0.34156143  1
  Al  Al1  1  0.22269080  0.20079640  0.09212198  1
  Al  Al2  1  0.77926976  0.09324997  0.84118034  1
  Al  Al3  1  0.89068132  0.20115839  0.59111706  1
  Al  Al4  1  0.44650458  0.09289014  0.34118708  1
  Al  Al5  1  0.56100634  0.19465423  0.08739151  1
  Al  Al6  1  0.10959708  0.09747291  0.84002311  1
  Al  Al7  1  0.22482734  0.20115834  0.59111686  1
  Al  Al8  1  0.77727206  0.09289021  0.34118736  1
  Al  Al9  1  0.89317996  0.20079609  0.09212193  1
  Al  Al10  1  0.44414714  0.09324982  0.84118053  1
  Al  Al11  1  0.55975374  0.19715932  0.59359033  1
  Al  Al12  1  0.10873517  0.42308867  0.35343747  1
  Al  Al13  1  0.78376964  0.42271555  0.83150772  1
  Al  Al14  1  0.88780454  0.54105769  0.59208428  1
  Al  Al15  1  0.44904008  0.41858648  0.36155995  1
  Al  Al16  1  0.11018174  0.42271566  0.83150734  1
  Al  Al17  1  0.21866743  0.54110193  0.59737730  1
  Al  Al18  1  0.78484312  0.42308854  0.35343741  1
  Al  Al19  1  0.89181744  0.53303216  0.09139540  1
  Al  Al20  1  0.44714268  0.42238137  0.82255071  1
  Al  Al21  1  0.55689765  0.54110169  0.59737732  1
  Al  Al22  1  0.10617697  0.77152516  0.35342279  1
  Al  Al23  1  0.21525798  0.88615040  0.08832295  1
  Al  Al24  1  0.77842144  0.75982333  0.84337974  1
  Al  Al25  1  0.88473866  0.87372586  0.59161314  1
  Al  Al26  1  0.43896412  0.77152493  0.35342275  1
  Al  Al27  1  0.55392066  0.87738557  0.09157265  1
  Al  Al28  1  0.10695141  0.76802504  0.83214536  1
  Al  Al29  1  0.21922336  0.87821969  0.59463148  1
  Al  Al30  1  0.77830365  0.76005898  0.34096888  1
  Al  Al31  1  0.88535978  0.87738578  0.09157256  1
  Al  Al32  1  0.44168992  0.76802478  0.83214518  1
  Al  Al33  1  0.55820181  0.87372583  0.59161293  1
  Gd  Gd34  1  0.21715829  0.54223203  0.10148785  1
  Gd  Gd35  1  0.55727682  0.54223169  0.10148787  1
  N  N36  1  0.22570171  0.20087636  0.36949480  1
  N  N37  1  0.10968239  0.09730228  0.11634858  1
  N  N38  1  0.88853460  0.20513212  0.86569104  1
  N  N39  1  0.77996759  0.09200521  0.62030924  1
  N  N40  1  0.56016698  0.19633280  0.37552787  1
  N  N41  1  0.44564820  0.09358000  0.11517354  1
  N  N42  1  0.22300016  0.20513237  0.86569119  1
  N  N43  1  0.10972030  0.09722641  0.61937934  1
  N  N44  1  0.89008895  0.20087637  0.36949486  1
  N  N45  1  0.77743855  0.09358013  0.11517369  1
  N  N46  1  0.55588175  0.20490337  0.86167109  1
  N  N47  1  0.44469408  0.09200509  0.62030944  1
  N  N48  1  0.21775894  0.54275413  0.37426006  1
  N  N49  1  0.10113408  0.41068795  0.12458269  1
  N  N50  1  0.88982154  0.53702403  0.86302545  1
  N  N51  1  0.78306568  0.42326548  0.61033829  1
  N  N52  1  0.55615400  0.54275383  0.37426006  1
  N  N53  1  0.46051274  0.39564121  0.13518131  1
  N  N54  1  0.22174722  0.53962777  0.83734760  1
  N  N55  1  0.11033569  0.42326550  0.61033804  1
  N  N56  1  0.88735558  0.54195562  0.37161421  1
  N  N57  1  0.80484515  0.41068770  0.12458222  1
  N  N58  1  0.55529192  0.53962761  0.83734762  1
  N  N59  1  0.44730135  0.42206400  0.60399895  1
  N  N60  1  0.21920386  0.87825853  0.37590722  1
  N  N61  1  0.09572203  0.79547857  0.12401061  1
  N  N62  1  0.88805919  0.87207093  0.86627026  1
  N  N63  1  0.77819715  0.76027190  0.62041208  1
  N  N64  1  0.55875402  0.87381305  0.36918068  1
  N  N65  1  0.42546569  0.79547816  0.12401089  1
  N  N66  1  0.22080430  0.87505790  0.85995619  1
  N  N67  1  0.10686721  0.76670773  0.61153068  1
  N  N68  1  0.88409915  0.87381311  0.36918080  1
  N  N69  1  0.77959632  0.75747356  0.11421474  1
  N  N70  1  0.55653616  0.87207071  0.86627044  1
  N  N71  1  0.44309142  0.76670755  0.61153053  1
