# generated using pymatgen
data_GdAl17N18
_symmetry_space_group_name_H-M   'P 1'
_cell_length_a   9.49323318
_cell_length_b   9.51113907
_cell_length_c   10.14333294
_cell_angle_alpha   89.91029765
_cell_angle_beta   89.99999997
_cell_angle_gamma   60.06225777
_symmetry_Int_Tables_number   1
_chemical_formula_structural   GdAl17N18
_chemical_formula_sum   'Gd2 Al34 N36'
_cell_volume   793.65068858
_cell_formula_units_Z   2
loop_
 _symmetry_equiv_pos_site_id
 _symmetry_equiv_pos_as_xyz
  1  'x, y, z'
loop_
 _atom_site_type_symbol
 _atom_site_label
 _atom_site_symmetry_multiplicity
 _atom_site_fract_x
 _atom_site_fract_y
 _atom_site_fract_z
 _atom_site_occupancy
  Al  Al0  1  0.11094108  0.09478451  0.30337232  1
  Al  Al1  1  0.22183767  0.20120365  0.05583208  1
  Al  Al2  1  0.77827697  0.09393547  0.80501668  1
  Al  Al3  1  0.89061898  0.20249582  0.55375859  1
  Al  Al4  1  0.44537744  0.09396824  0.30385368  1
  Al  Al5  1  0.55928257  0.19810151  0.05483894  1
  Al  Al6  1  0.11117316  0.09432033  0.80515185  1
  Al  Al7  1  0.22355186  0.20249583  0.55375859  1
  Al  Al8  1  0.77732098  0.09396824  0.30385367  1
  Al  Al9  1  0.89362535  0.20120365  0.05583208  1
  Al  Al10  1  0.44445421  0.09393547  0.80501668  1
  Al  Al11  1  0.55820514  0.20025638  0.55328511  1
  Al  Al12  1  0.10895654  0.42420410  0.30999684  1
  Al  Al13  1  0.78149543  0.42464512  0.79489343  1
  Al  Al14  1  0.88823515  0.54019640  0.55253758  1
  Al  Al15  1  0.44738181  0.42190305  0.31615217  1
  Al  Al16  1  0.11052612  0.42464514  0.79489343  1
  Al  Al17  1  0.21962802  0.54005034  0.55312200  1
  Al  Al18  1  0.78350605  0.42420409  0.30999684  1
  Al  Al19  1  0.89202105  0.53262455  0.05634337  1
  Al  Al20  1  0.44624354  0.42417958  0.78619659  1
  Al  Al21  1  0.55698832  0.54005033  0.55312200  1
  Al  Al22  1  0.10657836  0.76959554  0.31033653  1
  Al  Al23  1  0.21601923  0.88462822  0.05651407  1
  Al  Al24  1  0.77846912  0.75972841  0.80563795  1
  Al  Al25  1  0.88609742  0.87369985  0.55384139  1
  Al  Al26  1  0.44049278  0.76959554  0.31033653  1
  Al  Al27  1  0.55342624  0.87814379  0.05538450  1
  Al  Al28  1  0.10998663  0.76361710  0.79504104  1
  Al  Al29  1  0.22040818  0.87585033  0.55323125  1
  Al  Al30  1  0.77781190  0.76104285  0.30466362  1
  Al  Al31  1  0.88509664  0.87814380  0.05538449  1
  Al  Al32  1  0.44306294  0.76361709  0.79504104  1
  Al  Al33  1  0.55686940  0.87369985  0.55384139  1
  Gd  Gd34  1  0.21668010  0.54165128  0.05420401  1
  Gd  Gd35  1  0.55833528  0.54165129  0.05420401  1
  N  N36  1  0.22452425  0.20195252  0.36531606  1
  N  N37  1  0.10970355  0.09725958  0.11384855  1
  N  N38  1  0.88841106  0.20602422  0.86383435  1
  N  N39  1  0.77836162  0.09367565  0.61569700  1
  N  N40  1  0.55889745  0.19887176  0.36721765  1
  N  N41  1  0.44464330  0.09501072  0.11282064  1
  N  N42  1  0.22223137  0.20602423  0.86383435  1
  N  N43  1  0.11101167  0.09464332  0.61596733  1
  N  N44  1  0.89018991  0.20195251  0.36531605  1
  N  N45  1  0.77701264  0.09501072  0.11282064  1
  N  N46  1  0.55474540  0.20717585  0.86230665  1
  N  N47  1  0.44462938  0.09367566  0.61569700  1
  N  N48  1  0.21847673  0.54179218  0.36040158  1
  N  N49  1  0.10089099  0.41094794  0.12459517  1
  N  N50  1  0.89020030  0.53626608  0.86338192  1
  N  N51  1  0.78173606  0.42501159  0.60698414  1
  N  N52  1  0.55639778  0.54179218  0.36040158  1
  N  N53  1  0.45899074  0.39868520  0.13354562  1
  N  N54  1  0.22335066  0.53763120  0.83182351  1
  N  N55  1  0.10991903  0.42501160  0.60698415  1
  N  N56  1  0.88751467  0.54163733  0.36593273  1
  N  N57  1  0.80482774  0.41094794  0.12459516  1
  N  N58  1  0.55568482  0.53763119  0.83182350  1
  N  N59  1  0.44619181  0.42428306  0.59885587  1
  N  N60  1  0.22002506  0.87661655  0.36742447  1
  N  N61  1  0.09494816  0.79450105  0.12493142  1
  N  N62  1  0.89064171  0.87056226  0.86398992  1
  N  N63  1  0.77814023  0.76038621  0.61563706  1
  N  N64  1  0.55779482  0.87399375  0.36545345  1
  N  N65  1  0.42721747  0.79450105  0.12493142  1
  N  N66  1  0.22321332  0.87024004  0.86316316  1
  N  N67  1  0.10887125  0.76478199  0.60723545  1
  N  N68  1  0.88487810  0.87399375  0.36545345  1
  N  N69  1  0.77907023  0.75852621  0.11235256  1
  N  N70  1  0.55546271  0.87056227  0.86398993  1
  N  N71  1  0.44301344  0.76478198  0.60723545  1
