# generated using pymatgen
data_GdAl17N18
_symmetry_space_group_name_H-M   'P 1'
_cell_length_a   9.49323643
_cell_length_b   9.51114332
_cell_length_c   10.14333467
_cell_angle_alpha   89.91029084
_cell_angle_beta   90.00000002
_cell_angle_gamma   60.06226124
_symmetry_Int_Tables_number   1
_chemical_formula_structural   GdAl17N18
_chemical_formula_sum   'Gd2 Al34 N36'
_cell_volume   793.65147710
_cell_formula_units_Z   2
loop_
 _symmetry_equiv_pos_site_id
 _symmetry_equiv_pos_as_xyz
  1  'x, y, z'
loop_
 _atom_site_type_symbol
 _atom_site_label
 _atom_site_symmetry_multiplicity
 _atom_site_fract_x
 _atom_site_fract_y
 _atom_site_fract_z
 _atom_site_occupancy
  Al  Al0  1  0.11093463  0.09479740  0.29849528  1
  Al  Al1  1  0.22183120  0.20121642  0.05095255  1
  Al  Al2  1  0.77827033  0.09394823  0.80013739  1
  Al  Al3  1  0.89061227  0.20250907  0.54888127  1
  Al  Al4  1  0.44537075  0.09398119  0.29897665  1
  Al  Al5  1  0.55927637  0.19811391  0.04996086  1
  Al  Al6  1  0.11116669  0.09433327  0.80027187  1
  Al  Al7  1  0.22354531  0.20250908  0.54888127  1
  Al  Al8  1  0.77731472  0.09398118  0.29897665  1
  Al  Al9  1  0.89361904  0.20121643  0.05095256  1
  Al  Al10  1  0.44444808  0.09394824  0.80013739  1
  Al  Al11  1  0.55819842  0.20026982  0.54840707  1
  Al  Al12  1  0.10894983  0.42421709  0.30511843  1
  Al  Al13  1  0.78148891  0.42465780  0.79001563  1
  Al  Al14  1  0.88822896  0.54020876  0.54766061  1
  Al  Al15  1  0.44737522  0.42191623  0.31127075  1
  Al  Al16  1  0.11051995  0.42465782  0.79001563  1
  Al  Al17  1  0.21962187  0.54006305  0.54824366  1
  Al  Al18  1  0.78349977  0.42421708  0.30511843  1
  Al  Al19  1  0.89201448  0.53263770  0.05146275  1
  Al  Al20  1  0.44623731  0.42419203  0.78131804  1
  Al  Al21  1  0.55698177  0.54006304  0.54824366  1
  Al  Al22  1  0.10657196  0.76960866  0.30545848  1
  Al  Al23  1  0.21601249  0.88464168  0.05163394  1
  Al  Al24  1  0.77846254  0.75974157  0.80075736  1
  Al  Al25  1  0.88609139  0.87371256  0.54896389  1
  Al  Al26  1  0.44048606  0.76960866  0.30545848  1
  Al  Al27  1  0.55341988  0.87815692  0.05050570  1
  Al  Al28  1  0.10998009  0.76362990  0.79016342  1
  Al  Al29  1  0.22040198  0.87586273  0.54835428  1
  Al  Al30  1  0.77780558  0.76105550  0.29978617  1
  Al  Al31  1  0.88508988  0.87815693  0.05050570  1
  Al  Al32  1  0.44305669  0.76362989  0.79016343  1
  Al  Al33  1  0.55686271  0.87371256  0.54896390  1
  Gd  Gd34  1  0.21667291  0.54166484  0.04932414  1
  Gd  Gd35  1  0.55832891  0.54166485  0.04932413  1
  N  N36  1  0.22451755  0.20196580  0.36043821  1
  N  N37  1  0.10969703  0.09727261  0.10896971  1
  N  N38  1  0.88840489  0.20603665  0.85895443  1
  N  N39  1  0.77835504  0.09368852  0.61081798  1
  N  N40  1  0.55889055  0.19888555  0.36233879  1
  N  N41  1  0.44463661  0.09502373  0.10794203  1
  N  N42  1  0.22222511  0.20603667  0.85895443  1
  N  N43  1  0.11100522  0.09465621  0.61108818  1
  N  N44  1  0.89018333  0.20196579  0.36043820  1
  N  N45  1  0.77700632  0.09502372  0.10794203  1
  N  N46  1  0.55473921  0.20718823  0.85742741  1
  N  N47  1  0.44462310  0.09368852  0.61081798  1
  N  N48  1  0.21847051  0.54180499  0.35552181  1
  N  N49  1  0.10088431  0.41096104  0.11971544  1
  N  N50  1  0.89019368  0.53627933  0.85850154  1
  N  N51  1  0.78172936  0.42502450  0.60210598  1
  N  N52  1  0.55639118  0.54180499  0.35552181  1
  N  N53  1  0.45898395  0.39869877  0.12866419  1
  N  N54  1  0.22334439  0.53764394  0.82694374  1
  N  N55  1  0.10991282  0.42502451  0.60210598  1
  N  N56  1  0.88750835  0.54164998  0.36105498  1
  N  N57  1  0.80482131  0.41096104  0.11971543  1
  N  N58  1  0.55567834  0.53764393  0.82694374  1
  N  N59  1  0.44618536  0.42429594  0.59397704  1
  N  N60  1  0.22001867  0.87662933  0.36254678  1
  N  N61  1  0.09494174  0.79451428  0.12005209  1
  N  N62  1  0.89063500  0.87057512  0.85911033  1
  N  N63  1  0.77813377  0.76039913  0.61075757  1
  N  N64  1  0.55778826  0.87400657  0.36057550  1
  N  N65  1  0.42721066  0.79451428  0.12005210  1
  N  N66  1  0.22320671  0.87025327  0.85828314  1
  N  N67  1  0.10886491  0.76479457  0.60235737  1
  N  N68  1  0.88487184  0.87400657  0.36057550  1
  N  N69  1  0.77906384  0.75853899  0.10747361  1
  N  N70  1  0.55545655  0.87057513  0.85911033  1
  N  N71  1  0.44300720  0.76479456  0.60235738  1
