# generated using pymatgen
data_GdAl17N18
_symmetry_space_group_name_H-M   'P 1'
_cell_length_a   9.49323438
_cell_length_b   9.51114219
_cell_length_c   10.14334003
_cell_angle_alpha   89.91029924
_cell_angle_beta   89.99999996
_cell_angle_gamma   60.06226447
_symmetry_Int_Tables_number   1
_chemical_formula_structural   GdAl17N18
_chemical_formula_sum   'Gd2 Al34 N36'
_cell_volume   793.65165715
_cell_formula_units_Z   2
loop_
 _symmetry_equiv_pos_site_id
 _symmetry_equiv_pos_as_xyz
  1  'x, y, z'
loop_
 _atom_site_type_symbol
 _atom_site_label
 _atom_site_symmetry_multiplicity
 _atom_site_fract_x
 _atom_site_fract_y
 _atom_site_fract_z
 _atom_site_occupancy
  Al  Al0  1  0.11095615  0.09475438  0.31468869  1
  Al  Al1  1  0.22185269  0.20117329  0.06714542  1
  Al  Al2  1  0.77829167  0.09390550  0.81632992  1
  Al  Al3  1  0.89063357  0.20246641  0.56507445  1
  Al  Al4  1  0.44539225  0.09393813  0.31516995  1
  Al  Al5  1  0.55929803  0.19807060  0.06615434  1
  Al  Al6  1  0.11118803  0.09429061  0.81646421  1
  Al  Al7  1  0.22356669  0.20246641  0.56507445  1
  Al  Al8  1  0.77733628  0.09393813  0.31516994  1
  Al  Al9  1  0.89364069  0.20117329  0.06714543  1
  Al  Al10  1  0.44446947  0.09390551  0.81632992  1
  Al  Al11  1  0.55821982  0.20022703  0.56460052  1
  Al  Al12  1  0.10897129  0.42417411  0.32131247  1
  Al  Al13  1  0.78151027  0.42461505  0.80620969  1
  Al  Al14  1  0.88825043  0.54016584  0.56385456  1
  Al  Al15  1  0.44739679  0.42187310  0.32746562  1
  Al  Al16  1  0.11054135  0.42461507  0.80620969  1
  Al  Al17  1  0.21964329  0.54002024  0.56443841  1
  Al  Al18  1  0.78352130  0.42417410  0.32131247  1
  Al  Al19  1  0.89203599  0.53259468  0.06765571  1
  Al  Al20  1  0.44625871  0.42414925  0.79751272  1
  Al  Al21  1  0.55700316  0.54002024  0.56443841  1
  Al  Al22  1  0.10659360  0.76956548  0.32165219  1
  Al  Al23  1  0.21603402  0.88459865  0.06782681  1
  Al  Al24  1  0.77848386  0.75969895  0.81694982  1
  Al  Al25  1  0.88611299  0.87366961  0.56515684  1
  Al  Al26  1  0.44050760  0.76956547  0.32165219  1
  Al  Al27  1  0.55344140  0.87811377  0.06669841  1
  Al  Al28  1  0.11000138  0.76358726  0.80635738  1
  Al  Al29  1  0.22042350  0.87581970  0.56454768  1
  Al  Al30  1  0.77782717  0.76101232  0.31597911  1
  Al  Al31  1  0.88511151  0.87811378  0.06669840  1
  Al  Al32  1  0.44307804  0.76358725  0.80635738  1
  Al  Al33  1  0.55688407  0.87366961  0.56515684  1
  Gd  Gd34  1  0.21669493  0.54162130  0.06551838  1
  Gd  Gd35  1  0.55835043  0.54162131  0.06551838  1
  N  N36  1  0.22453906  0.20192281  0.37663169  1
  N  N37  1  0.10971860  0.09722947  0.12516312  1
  N  N38  1  0.88842638  0.20599371  0.87514752  1
  N  N39  1  0.77837653  0.09364560  0.62701092  1
  N  N40  1  0.55891221  0.19884224  0.37853260  1
  N  N41  1  0.44465812  0.09498047  0.12413537  1
  N  N42  1  0.22224656  0.20599373  0.87514752  1
  N  N43  1  0.11102661  0.09461344  0.62728100  1
  N  N44  1  0.89020482  0.20192280  0.37663169  1
  N  N45  1  0.77702807  0.09498047  0.12413537  1
  N  N46  1  0.55476067  0.20714532  0.87362087  1
  N  N47  1  0.44464453  0.09364561  0.62701092  1
  N  N48  1  0.21849200  0.54176197  0.37171638  1
  N  N49  1  0.10090575  0.41091789  0.13590916  1
  N  N50  1  0.89021496  0.53623676  0.87469487  1
  N  N51  1  0.78175082  0.42498162  0.61830014  1
  N  N52  1  0.55641273  0.54176197  0.37171638  1
  N  N53  1  0.45900581  0.39865505  0.14485895  1
  N  N54  1  0.22336564  0.53760136  0.84313800  1
  N  N55  1  0.10993425  0.42498163  0.61830015  1
  N  N56  1  0.88752984  0.54160700  0.37724891  1
  N  N57  1  0.80484303  0.41091789  0.13590916  1
  N  N58  1  0.55569969  0.53760134  0.84313800  1
  N  N59  1  0.44620685  0.42425298  0.61017170  1
  N  N60  1  0.22004019  0.87658630  0.37874037  1
  N  N61  1  0.09496338  0.79447103  0.13624555  1
  N  N62  1  0.89065611  0.87053257  0.87530333  1
  N  N63  1  0.77815512  0.76035642  0.62695051  1
  N  N64  1  0.55780979  0.87396347  0.37676872  1
  N  N65  1  0.42723227  0.79447103  0.13624555  1
  N  N66  1  0.22322789  0.87021092  0.87447635  1
  N  N67  1  0.10888625  0.76475185  0.61855136  1
  N  N68  1  0.88489341  0.87396347  0.37676871  1
  N  N69  1  0.77908538  0.75849591  0.12366669  1
  N  N70  1  0.55547800  0.87053258  0.87530333  1
  N  N71  1  0.44302858  0.76475185  0.61855136  1
