# generated using pymatgen
data_GdAl17N18
_symmetry_space_group_name_H-M   'P 1'
_cell_length_a   9.58956941
_cell_length_b   9.62181442
_cell_length_c   9.87068575
_cell_angle_alpha   89.94617089
_cell_angle_beta   90.00000077
_cell_angle_gamma   60.11080523
_symmetry_Int_Tables_number   1
_chemical_formula_structural   GdAl17N18
_chemical_formula_sum   'Gd2 Al34 N36'
_cell_volume   789.61904309
_cell_formula_units_Z   2
loop_
 _symmetry_equiv_pos_site_id
 _symmetry_equiv_pos_as_xyz
  1  'x, y, z'
loop_
 _atom_site_type_symbol
 _atom_site_label
 _atom_site_symmetry_multiplicity
 _atom_site_fract_x
 _atom_site_fract_y
 _atom_site_fract_z
 _atom_site_occupancy
  Al  Al0  1  0.11100782  0.09465105  0.32544396  1
  Al  Al1  1  0.22207702  0.20103518  0.07803744  1
  Al  Al2  1  0.77867465  0.09370807  0.82789478  1
  Al  Al3  1  0.89062985  0.20201514  0.57652099  1
  Al  Al4  1  0.44604320  0.09341734  0.32592250  1
  Al  Al5  1  0.55986887  0.19692896  0.07623391  1
  Al  Al6  1  0.11058910  0.09548849  0.82761537  1
  Al  Al7  1  0.22402173  0.20201512  0.57652099  1
  Al  Al8  1  0.77720614  0.09341734  0.32592252  1
  Al  Al9  1  0.89355452  0.20103515  0.07803743  1
  Al  Al10  1  0.44428395  0.09370806  0.82789481  1
  Al  Al11  1  0.55896598  0.19873470  0.57760786  1
  Al  Al12  1  0.10847099  0.42333761  0.33390475  1
  Al  Al13  1  0.78099436  0.42470367  0.81832463  1
  Al  Al14  1  0.88804705  0.54057260  0.57622298  1
  Al  Al15  1  0.44845629  0.41975413  0.34290709  1
  Al  Al16  1  0.11096866  0.42470370  0.81832460  1
  Al  Al17  1  0.21891005  0.54076375  0.57683605  1
  Al  Al18  1  0.78485811  0.42333759  0.33390470  1
  Al  Al19  1  0.89240645  0.53185380  0.07785165  1
  Al  Al20  1  0.44597819  0.42471028  0.81000392  1
  Al  Al21  1  0.55699294  0.54076369  0.57683606  1
  Al  Al22  1  0.10572681  0.77157194  0.33412678  1
  Al  Al23  1  0.21559964  0.88546738  0.07759274  1
  Al  Al24  1  0.77847225  0.75972213  0.82888425  1
  Al  Al25  1  0.88563993  0.87365470  0.57676193  1
  Al  Al26  1  0.43936788  0.77157193  0.33412682  1
  Al  Al27  1  0.55338340  0.87771315  0.07765671  1
  Al  Al28  1  0.10965264  0.76391608  0.81876510  1
  Al  Al29  1  0.21998619  0.87669429  0.57746046  1
  Al  Al30  1  0.77802855  0.76060953  0.32653881  1
  Al  Al31  1  0.88557007  0.87771317  0.07765669  1
  Al  Al32  1  0.44309795  0.76391605  0.81876508  1
  Al  Al33  1  0.55737203  0.87365470  0.57676193  1
  Gd  Gd34  1  0.21768970  0.54137458  0.08416062  1
  Gd  Gd35  1  0.55760243  0.54137459  0.08416062  1
  N  N36  1  0.22513263  0.20123933  0.38399948  1
  N  N37  1  0.10965901  0.09734867  0.13176225  1
  N  N38  1  0.88818408  0.20620706  0.88221882  1
  N  N39  1  0.77907104  0.09297121  0.63492169  1
  N  N40  1  0.55991815  0.19683040  0.38762309  1
  N  N41  1  0.44517481  0.09425653  0.13078225  1
  N  N42  1  0.22227555  0.20620710  0.88221882  1
  N  N43  1  0.11058708  0.09549253  0.63481713  1
  N  N44  1  0.89029478  0.20123933  0.38399948  1
  N  N45  1  0.77723533  0.09425652  0.13078227  1
  N  N46  1  0.55482940  0.20700789  0.87984407  1
  N  N47  1  0.44462442  0.09297119  0.63492172  1
  N  N48  1  0.21771878  0.54255738  0.37836793  1
  N  N49  1  0.10052320  0.40988516  0.14325572  1
  N  N50  1  0.89021375  0.53623924  0.88122180  1
  N  N51  1  0.78157256  0.42474940  0.62564952  1
  N  N52  1  0.55639060  0.54255737  0.37836794  1
  N  N53  1  0.46095616  0.39475439  0.15475390  1
  N  N54  1  0.22316915  0.53826837  0.85388113  1
  N  N55  1  0.11034474  0.42474941  0.62564948  1
  N  N56  1  0.88733990  0.54198691  0.38536955  1
  N  N57  1  0.80625834  0.40988513  0.14325567  1
  N  N58  1  0.55522920  0.53826835  0.85388113  1
  N  N59  1  0.44621270  0.42424126  0.61685451  1
  N  N60  1  0.21943634  0.87779396  0.38751157  1
  N  N61  1  0.09448527  0.79658993  0.14364961  1
  N  N62  1  0.89017054  0.87090789  0.88253556  1
  N  N63  1  0.77815720  0.76035222  0.63500442  1
  N  N64  1  0.55836975  0.87406662  0.38422977  1
  N  N65  1  0.42559140  0.79658992  0.14364965  1
  N  N66  1  0.22245612  0.87175446  0.88054556  1
  N  N67  1  0.10850732  0.76494971  0.62628350  1
  N  N68  1  0.88423030  0.87406660  0.38422978  1
  N  N69  1  0.77950123  0.75766412  0.13037099  1
  N  N70  1  0.55558824  0.87090787  0.88253558  1
  N  N71  1  0.44320962  0.76494968  0.62628347  1
