# generated using pymatgen
data_GdAl17N18
_symmetry_space_group_name_H-M   'P 1'
_cell_length_a   9.49323552
_cell_length_b   9.51114228
_cell_length_c   10.14333861
_cell_angle_alpha   89.91029074
_cell_angle_beta   89.99999998
_cell_angle_gamma   60.06226080
_symmetry_Int_Tables_number   1
_chemical_formula_structural   GdAl17N18
_chemical_formula_sum   'Gd2 Al34 N36'
_cell_volume   793.65161903
_cell_formula_units_Z   2
loop_
 _symmetry_equiv_pos_site_id
 _symmetry_equiv_pos_as_xyz
  1  'x, y, z'
loop_
 _atom_site_type_symbol
 _atom_site_label
 _atom_site_symmetry_multiplicity
 _atom_site_fract_x
 _atom_site_fract_y
 _atom_site_fract_z
 _atom_site_occupancy
  Al  Al0  1  0.11094458  0.09477751  0.30596246  1
  Al  Al1  1  0.22184115  0.20119658  0.05842019  1
  Al  Al2  1  0.77828018  0.09392854  0.80760520  1
  Al  Al3  1  0.89062223  0.20248921  0.55634859  1
  Al  Al4  1  0.44538072  0.09396129  0.30644395  1
  Al  Al5  1  0.55928627  0.19809410  0.05742814  1
  Al  Al6  1  0.11117656  0.09431355  0.80773981  1
  Al  Al7  1  0.22355521  0.20248922  0.55634859  1
  Al  Al8  1  0.77732465  0.09396129  0.30644395  1
  Al  Al9  1  0.89362893  0.20119658  0.05842020  1
  Al  Al10  1  0.44445792  0.09392854  0.80760520  1
  Al  Al11  1  0.55820833  0.20025000  0.55587429  1
  Al  Al12  1  0.10895982  0.42419721  0.31258532  1
  Al  Al13  1  0.78149879  0.42463812  0.79748240  1
  Al  Al14  1  0.88823880  0.54018908  0.55512743  1
  Al  Al15  1  0.44738515  0.42189637  0.31873733  1
  Al  Al16  1  0.11052975  0.42463814  0.79748240  1
  Al  Al17  1  0.21963172  0.54004331  0.55571014  1
  Al  Al18  1  0.78350966  0.42419720  0.31258532  1
  Al  Al19  1  0.89202441  0.53261783  0.05893040  1
  Al  Al20  1  0.44624714  0.42417238  0.78878446  1
  Al  Al21  1  0.55699165  0.54004331  0.55571014  1
  Al  Al22  1  0.10658190  0.76958874  0.31292544  1
  Al  Al23  1  0.21602250  0.88462168  0.05910152  1
  Al  Al24  1  0.77847244  0.75972177  0.80822522  1
  Al  Al25  1  0.88610119  0.87369288  0.55643135  1
  Al  Al26  1  0.44049603  0.76958874  0.31292544  1
  Al  Al27  1  0.55342982  0.87813702  0.05797334  1
  Al  Al28  1  0.10998999  0.76361017  0.79763030  1
  Al  Al29  1  0.22041179  0.87584311  0.55582140  1
  Al  Al30  1  0.77781546  0.76103574  0.30725364  1
  Al  Al31  1  0.88509984  0.87813703  0.05797334  1
  Al  Al32  1  0.44306652  0.76361016  0.79763030  1
  Al  Al33  1  0.55687260  0.87369288  0.55643135  1
  Gd  Gd34  1  0.21668274  0.54164496  0.05679073  1
  Gd  Gd35  1  0.55833896  0.54164497  0.05679072  1
  N  N36  1  0.22452748  0.20194592  0.36790548  1
  N  N37  1  0.10970700  0.09725268  0.11643705  1
  N  N38  1  0.88841462  0.20601711  0.86642204  1
  N  N39  1  0.77836487  0.09366883  0.61828563  1
  N  N40  1  0.55890045  0.19886577  0.36980597  1
  N  N41  1  0.44464659  0.09500386  0.11540948  1
  N  N42  1  0.22223492  0.20601713  0.86642204  1
  N  N43  1  0.11101510  0.09463645  0.61855589  1
  N  N44  1  0.89019329  0.20194590  0.36790548  1
  N  N45  1  0.77701621  0.09500386  0.11540947  1
  N  N46  1  0.55474897  0.20716871  0.86489483  1
  N  N47  1  0.44463295  0.09366884  0.61828562  1
  N  N48  1  0.21848048  0.54178511  0.36298860  1
  N  N49  1  0.10089431  0.41094120  0.12718268  1
  N  N50  1  0.89020360  0.53625949  0.86596905  1
  N  N51  1  0.78173922  0.42500480  0.60957283  1
  N  N52  1  0.55640110  0.54178511  0.36298860  1
  N  N53  1  0.45899376  0.39867916  0.13613094  1
  N  N54  1  0.22335430  0.53762419  0.83441048  1
  N  N55  1  0.10992266  0.42500481  0.60957283  1
  N  N56  1  0.88751827  0.54163014  0.36852195  1
  N  N57  1  0.80483116  0.41094120  0.12718267  1
  N  N58  1  0.55568819  0.53762418  0.83441048  1
  N  N59  1  0.44619520  0.42427627  0.60144364  1
  N  N60  1  0.22002862  0.87660943  0.37001390  1
  N  N61  1  0.09495177  0.79449420  0.12751931  1
  N  N62  1  0.89064500  0.87055531  0.86657793  1
  N  N63  1  0.77814368  0.76037931  0.61822519  1
  N  N64  1  0.55779814  0.87398672  0.36804291  1
  N  N65  1  0.42722071  0.79449420  0.12751931  1
  N  N66  1  0.22321666  0.87023337  0.86575064  1
  N  N67  1  0.10887482  0.76477481  0.60982435  1
  N  N68  1  0.88488181  0.87398671  0.36804290  1
  N  N69  1  0.77907376  0.75851916  0.11494118  1
  N  N70  1  0.55546636  0.87055532  0.86657793  1
  N  N71  1  0.44301704  0.76477481  0.60982435  1
