
#======================================================================
# CRYSTAL DATA
#----------------------------------------------------------------------
data_VESTA_phase_1

_chemical_name_common                  'Al  N '
_cell_length_a                         3.128420
_cell_length_b                         3.128449
_cell_length_c                         5.015258
_cell_angle_alpha                      90.000000
_cell_angle_beta                       90.000000
_cell_angle_gamma                      60.000320
_cell_volume                           42.508866
_space_group_name_H-M_alt              'P 1'
_space_group_IT_number                 1

loop_
_space_group_symop_operation_xyz
   'x, y, z'

loop_
   _atom_site_label
   _atom_site_occupancy
   _atom_site_fract_x
   _atom_site_fract_y
   _atom_site_fract_z
   _atom_site_adp_type
   _atom_site_U_iso_or_equiv
   _atom_site_type_symbol
   Al1        1.0     0.333333     0.283334     0.590780    Uiso  ? Al
   Al2        1.0     0.666667     0.616666     0.090780    Uiso  ? Al
   N1         1.0     0.666669     0.616662     0.709220    Uiso  ? N
   N2         1.0     0.333331     0.283338     0.209220    Uiso  ? N
