# generated using pymatgen
data_GdAl17N18
_symmetry_space_group_name_H-M   'P 1'
_cell_length_a   9.54278813
_cell_length_b   9.54005955
_cell_length_c   10.27474999
_cell_angle_alpha   90.24037998
_cell_angle_beta   89.51180653
_cell_angle_gamma   60.07166800
_symmetry_Int_Tables_number   1
_chemical_formula_structural   GdAl17N18
_chemical_formula_sum   'Gd2 Al34 N36'
_cell_volume   810.59711217
_cell_formula_units_Z   2
loop_
 _symmetry_equiv_pos_site_id
 _symmetry_equiv_pos_as_xyz
  1  'x, y, z'
loop_
 _atom_site_type_symbol
 _atom_site_label
 _atom_site_symmetry_multiplicity
 _atom_site_fract_x
 _atom_site_fract_y
 _atom_site_fract_z
 _atom_site_occupancy
  Al  Al0  1  0.12200770  0.07836005  0.38881490  1
  Al  Al1  1  0.77451328  0.09150399  0.80752338  1
  Al  Al2  1  0.88473606  0.20153054  0.56952443  1
  Al  Al3  1  0.46045127  0.08517596  0.31657280  1
  Al  Al4  1  0.56057193  0.20405080  0.06115275  1
  Al  Al5  1  0.10988086  0.09365956  0.85343047  1
  Al  Al6  1  0.23077147  0.20186251  0.58302645  1
  Al  Al7  1  0.78306909  0.08650891  0.30905402  1
  Al  Al8  1  0.87690787  0.20512992  0.04169012  1
  Al  Al9  1  0.44451260  0.09526961  0.80968959  1
  Al  Al10  1  0.55779561  0.20546356  0.56016745  1
  Al  Al11  1  0.12162408  0.43070468  0.38854295  1
  Al  Al12  1  0.21270650  0.54958454  0.12741482  1
  Al  Al13  1  0.77275027  0.43132900  0.80438901  1
  Al  Al14  1  0.88508560  0.54536306  0.56779093  1
  Al  Al15  1  0.44612159  0.42444247  0.30938313  1
  Al  Al16  1  0.54952090  0.54222936  0.05089731  1
  Al  Al17  1  0.11072669  0.43688931  0.86814727  1
  Al  Al18  1  0.21883051  0.54371078  0.63131825  1
  Al  Al19  1  0.87362028  0.55379764  0.04166764  1
  Al  Al20  1  0.44885559  0.42453344  0.80977761  1
  Al  Al21  1  0.54924088  0.54099821  0.56141168  1
  Al  Al22  1  0.11803198  0.75550884  0.37877537  1
  Al  Al23  1  0.21264635  0.87305689  0.13111666  1
  Al  Al24  1  0.77481065  0.76762231  0.80705757  1
  Al  Al25  1  0.88231397  0.87491202  0.55697221  1
  Al  Al26  1  0.44792582  0.75907035  0.31091126  1
  Al  Al27  1  0.56007219  0.86901389  0.06126586  1
  Al  Al28  1  0.11583295  0.76118111  0.88209480  1
  Al  Al29  1  0.22017260  0.86801206  0.62960117  1
  Al  Al30  1  0.78278711  0.76093955  0.30859608  1
  Al  Al31  1  0.88218302  0.87620431  0.06152372  1
  Al  Al32  1  0.44880598  0.76133074  0.80963383  1
  Al  Al33  1  0.55807680  0.86897766  0.56014466  1
  Gd  Gd34  1  0.21602491  0.21025196  0.10137671  1
  Gd  Gd35  1  0.78492263  0.42056448  0.30679294  1
  N  N36  1  0.22963238  0.20017729  0.35891334  1
  N  N37  1  0.09424647  0.07676076  0.06424612  1
  N  N38  1  0.87940649  0.20906416  0.85288010  1
  N  N39  1  0.77560713  0.09031898  0.62255235  1
  N  N40  1  0.55951755  0.20604209  0.37286483  1
  N  N41  1  0.48074697  0.07632580  0.13176060  1
  N  N42  1  0.22109315  0.20917722  0.84760078  1
  N  N43  1  0.11729657  0.08868468  0.58419639  1
  N  N44  1  0.89919659  0.17495111  0.38469032  1
  N  N45  1  0.77740046  0.09748650  0.12071456  1
  N  N46  1  0.55346145  0.20644475  0.87208821  1
  N  N47  1  0.45247522  0.09006840  0.61968055  1
  N  N48  1  0.21755493  0.53989752  0.31553666  1
  N  N49  1  0.09440864  0.46644155  0.05432577  1
  N  N50  1  0.87853043  0.54699498  0.85308342  1
  N  N51  1  0.77573603  0.42835260  0.61356643  1
  N  N52  1  0.52835939  0.55074816  0.37818691  1
  N  N53  1  0.44929950  0.42534050  0.11843352  1
  N  N54  1  0.21752979  0.54764629  0.81622235  1
  N  N55  1  0.11813339  0.42760586  0.57744083  1
  N  N56  1  0.89775111  0.55522650  0.38122124  1
  N  N57  1  0.77694023  0.42851349  0.08677588  1
  N  N58  1  0.54953992  0.54281699  0.86489396  1
  N  N59  1  0.45118131  0.42208514  0.62152408  1
  N  N60  1  0.21994315  0.87048830  0.32029173  1
  N  N61  1  0.11469775  0.76068946  0.06955319  1
  N  N62  1  0.88202538  0.87645079  0.87215291  1
  N  N63  1  0.77614357  0.76581322  0.62170989  1
  N  N64  1  0.55998890  0.86604326  0.37309850  1
  N  N65  1  0.44954738  0.75876801  0.11995408  1
  N  N66  1  0.21738420  0.87187196  0.81548845  1
  N  N67  1  0.11603593  0.75726153  0.56598191  1
  N  N68  1  0.88528357  0.87265460  0.36744950  1
  N  N69  1  0.77742211  0.75991284  0.12056064  1
  N  N70  1  0.55314857  0.87531994  0.87191036  1
  N  N71  1  0.45183506  0.75853845  0.62101809  1
