# generated using pymatgen
data_GdAl17N18
_symmetry_space_group_name_H-M   'P 1'
_cell_length_a   9.48561485
_cell_length_b   9.50871198
_cell_length_c   10.40762674
_cell_angle_alpha   90.00000171
_cell_angle_beta   89.52604241
_cell_angle_gamma   59.91942192
_symmetry_Int_Tables_number   1
_chemical_formula_structural   GdAl17N18
_chemical_formula_sum   'Gd2 Al34 N36'
_cell_volume   812.26263004
_cell_formula_units_Z   2
loop_
 _symmetry_equiv_pos_site_id
 _symmetry_equiv_pos_as_xyz
  1  'x, y, z'
loop_
 _atom_site_type_symbol
 _atom_site_label
 _atom_site_symmetry_multiplicity
 _atom_site_fract_x
 _atom_site_fract_y
 _atom_site_fract_z
 _atom_site_occupancy
  Al  Al0  1  0.12374496  0.08071086  0.40855854  1
  Al  Al1  1  0.78120988  0.08920767  0.81844734  1
  Al  Al2  1  0.88793133  0.19859720  0.58130329  1
  Al  Al3  1  0.44735848  0.09302053  0.39835375  1
  Al  Al4  1  0.55489799  0.20739397  0.13910344  1
  Al  Al5  1  0.11488385  0.08715635  0.88223222  1
  Al  Al6  1  0.22554598  0.20392678  0.64628284  1
  Al  Al7  1  0.78574825  0.08569459  0.32120322  1
  Al  Al8  1  0.87459386  0.20811643  0.05606654  1
  Al  Al9  1  0.45150281  0.09094838  0.88767897  1
  Al  Al10  1  0.55003477  0.20937172  0.64056057  1
  Al  Al11  1  0.12374497  0.42894369  0.40855855  1
  Al  Al12  1  0.21672684  0.54501295  0.13970000  1
  Al  Al13  1  0.78018379  0.42660785  0.81602623  1
  Al  Al14  1  0.88793129  0.54687098  0.58130329  1
  Al  Al15  1  0.44007697  0.42889050  0.38788710  1
  Al  Al16  1  0.54180409  0.54579774  0.13341896  1
  Al  Al17  1  0.11488382  0.43135936  0.88223221  1
  Al  Al18  1  0.22430020  0.54211892  0.64309995  1
  Al  Al19  1  0.87459387  0.55068921  0.05606655  1
  Al  Al20  1  0.44441453  0.42790674  0.88891369  1
  Al  Al21  1  0.54884916  0.54227518  0.63768885  1
  Al  Al22  1  0.11740523  0.75799714  0.38865040  1
  Al  Al23  1  0.21672684  0.87165977  0.13970000  1
  Al  Al24  1  0.78120984  0.76298198  0.81844735  1
  Al  Al25  1  0.88346069  0.87496939  0.56765105  1
  Al  Al26  1  0.44007697  0.76443206  0.38788710  1
  Al  Al27  1  0.55489798  0.87110760  0.13910344  1
  Al  Al28  1  0.11725756  0.75807098  0.89338858  1
  Al  Al29  1  0.22430021  0.86698037  0.64309995  1
  Al  Al30  1  0.78574824  0.76195665  0.32120320  1
  Al  Al31  1  0.88146542  0.87596705  0.07162805  1
  Al  Al32  1  0.44441452  0.76107827  0.88891369  1
  Al  Al33  1  0.55003474  0.87399306  0.64056057  1
  Gd  Gd34  1  0.21806329  0.20766814  0.14169371  1
  Gd  Gd35  1  0.79308492  0.42015728  0.32918083  1
  N  N36  1  0.21729790  0.20805081  0.35995931  1
  N  N37  1  0.10163858  0.07732700  0.06530954  1
  N  N38  1  0.88018687  0.20860609  0.87068510  1
  N  N39  1  0.78277731  0.08694240  0.63556216  1
  N  N40  1  0.54773941  0.20860164  0.32824920  1
  N  N41  1  0.47616545  0.07861705  0.06852926  1
  N  N42  1  0.22332619  0.20503668  0.83464229  1
  N  N43  1  0.12136855  0.08725454  0.59463938  1
  N  N44  1  0.89866890  0.17274089  0.40011143  1
  N  N45  1  0.78491004  0.09273093  0.13475927  1
  N  N46  1  0.54747917  0.21151761  0.82644729  1
  N  N47  1  0.44893366  0.09223293  0.58259030  1
  N  N48  1  0.22056920  0.53761744  0.32709608  1
  N  N49  1  0.10163857  0.45443398  0.06530953  1
  N  N50  1  0.88018685  0.54460656  0.87068510  1
  N  N51  1  0.78381500  0.42479224  0.62562358  1
  N  N52  1  0.52343616  0.55498169  0.31961115  1
  N  N53  1  0.44207522  0.42637401  0.07538910  1
  N  N54  1  0.22354829  0.54282799  0.82658672  1
  N  N55  1  0.12136852  0.42477643  0.59463938  1
  N  N56  1  0.89866889  0.56198972  0.40011142  1
  N  N57  1  0.77632655  0.42853648  0.10879594  1
  N  N58  1  0.54748533  0.54295711  0.82535211  1
  N  N59  1  0.44643592  0.42694524  0.57509889  1
  N  N60  1  0.22056920  0.87521288  0.32709609  1
  N  N61  1  0.11579794  0.75880080  0.08056405  1
  N  N62  1  0.88172386  0.87583783  0.88606603  1
  N  N63  1  0.78277728  0.76367979  0.63556217  1
  N  N64  1  0.54773941  0.87705849  0.32824919  1
  N  N65  1  0.44207522  0.76495032  0.07538910  1
  N  N66  1  0.22354827  0.86702325  0.82658672  1
  N  N67  1  0.11875939  0.75732005  0.57615053  1
  N  N68  1  0.88351067  0.87494441  0.38203692  1
  N  N69  1  0.78491003  0.75575855  0.13475926  1
  N  N70  1  0.54747912  0.87440280  0.82644729  1
  N  N71  1  0.44643593  0.76001835  0.57509889  1
