# generated using pymatgen
data_GdAl17N18
_symmetry_space_group_name_H-M   'P 1'
_cell_length_a   9.52752721
_cell_length_b   9.51291625
_cell_length_c   10.30283475
_cell_angle_alpha   89.88547828
_cell_angle_beta   89.48408075
_cell_angle_gamma   60.08376429
_symmetry_Int_Tables_number   1
_chemical_formula_structural   GdAl17N18
_chemical_formula_sum   'Gd2 Al34 N36'
_cell_volume   809.33400698
_cell_formula_units_Z   2
loop_
 _symmetry_equiv_pos_site_id
 _symmetry_equiv_pos_as_xyz
  1  'x, y, z'
loop_
 _atom_site_type_symbol
 _atom_site_label
 _atom_site_symmetry_multiplicity
 _atom_site_fract_x
 _atom_site_fract_y
 _atom_site_fract_z
 _atom_site_occupancy
  Al  Al0  1  0.11554462  0.08723673  0.40870793  1
  Al  Al1  1  0.77873399  0.08814739  0.83173096  1
  Al  Al2  1  0.89554118  0.20428064  0.65804115  1
  Al  Al3  1  0.45017883  0.09197991  0.40772468  1
  Al  Al4  1  0.55074843  0.20864294  0.14504706  1
  Al  Al5  1  0.11156821  0.08911389  0.89348345  1
  Al  Al6  1  0.22665901  0.20241979  0.64833457  1
  Al  Al7  1  0.78390265  0.08292787  0.32360540  1
  Al  Al8  1  0.89124894  0.19932579  0.13810098  1
  Al  Al9  1  0.44705217  0.09277379  0.89541366  1
  Al  Al10  1  0.55249478  0.20918582  0.64810732  1
  Al  Al11  1  0.11476852  0.43176163  0.41338316  1
  Al  Al12  1  0.21677051  0.54662818  0.14933434  1
  Al  Al13  1  0.77332645  0.42548468  0.89476354  1
  Al  Al14  1  0.89478265  0.53442105  0.65624820  1
  Al  Al15  1  0.43824388  0.43032861  0.39579248  1
  Al  Al16  1  0.54458266  0.54406925  0.14253743  1
  Al  Al17  1  0.11435990  0.43054700  0.89021213  1
  Al  Al18  1  0.22534473  0.54204263  0.64959595  1
  Al  Al19  1  0.88384645  0.54686691  0.10704652  1
  Al  Al20  1  0.44175682  0.42753278  0.89934073  1
  Al  Al21  1  0.55361178  0.54004204  0.65602267  1
  Al  Al22  1  0.11817273  0.75744831  0.39705093  1
  Al  Al23  1  0.21832853  0.86999631  0.14883405  1
  Al  Al24  1  0.77791826  0.76688395  0.83226735  1
  Al  Al25  1  0.88344142  0.87497714  0.57706557  1
  Al  Al26  1  0.43891828  0.76587147  0.39590029  1
  Al  Al27  1  0.55029362  0.87463702  0.14581979  1
  Al  Al28  1  0.11909599  0.75735238  0.89945001  1
  Al  Al29  1  0.22384149  0.86774905  0.64860145  1
  Al  Al30  1  0.78586550  0.76272013  0.32386291  1
  Al  Al31  1  0.88172426  0.87675665  0.07503955  1
  Al  Al32  1  0.44183861  0.76340903  0.89883722  1
  Al  Al33  1  0.55261377  0.87181302  0.64880708  1
  Gd  Gd34  1  0.21402094  0.21155485  0.15542270  1
  Gd  Gd35  1  0.77415731  0.42808213  0.39719737  1
  N  N36  1  0.22471652  0.20534274  0.37420663  1
  N  N37  1  0.10120841  0.07748831  0.07428191  1
  N  N38  1  0.89102722  0.20469558  0.84445426  1
  N  N39  1  0.78243713  0.08927920  0.63930958  1
  N  N40  1  0.55031986  0.20907234  0.33813935  1
  N  N41  1  0.46572036  0.08393051  0.07842342  1
  N  N42  1  0.22291899  0.20424987  0.84021552  1
  N  N43  1  0.11265407  0.09087130  0.59571139  1
  N  N44  1  0.91492358  0.17750452  0.32570386  1
  N  N45  1  0.77532700  0.08998208  0.13332204  1
  N  N46  1  0.54832251  0.21077661  0.83700374  1
  N  N47  1  0.45108541  0.09097720  0.59327699  1
  N  N48  1  0.22135479  0.53738312  0.33810462  1
  N  N49  1  0.10130012  0.45663610  0.07176901  1
  N  N50  1  0.88780119  0.53792066  0.85268730  1
  N  N51  1  0.77992785  0.42684006  0.61746490  1
  N  N52  1  0.52170242  0.55676704  0.32473958  1
  N  N53  1  0.43910837  0.42800364  0.08580029  1
  N  N54  1  0.22474077  0.54151170  0.83450619  1
  N  N55  1  0.11535410  0.42837777  0.60138383  1
  N  N56  1  0.90975988  0.54476997  0.34590661  1
  N  N57  1  0.77317148  0.42723213  0.08764943  1
  N  N58  1  0.55051106  0.54078558  0.84285253  1
  N  N59  1  0.44757876  0.42834233  0.58582934  1
  N  N60  1  0.22191440  0.87429920  0.33780743  1
  N  N61  1  0.11449551  0.76006545  0.08894880  1
  N  N62  1  0.88618794  0.87343157  0.88998495  1
  N  N63  1  0.78309731  0.76202615  0.64246505  1
  N  N64  1  0.55023868  0.87589229  0.33739740  1
  N  N65  1  0.44055683  0.76532055  0.08524879  1
  N  N66  1  0.22403173  0.86853719  0.83420534  1
  N  N67  1  0.11784371  0.75772174  0.58557192  1
  N  N68  1  0.88492165  0.87446284  0.38991641  1
  N  N69  1  0.77615956  0.76684569  0.13312409  1
  N  N70  1  0.54793806  0.87427092  0.83737933  1
  N  N71  1  0.44726816  0.75842262  0.58615788  1
