# generated using pymatgen
data_GdAl17N18
_symmetry_space_group_name_H-M   'P 1'
_cell_length_a   9.51490697
_cell_length_b   9.58110932
_cell_length_c   10.42430763
_cell_angle_alpha   89.98307636
_cell_angle_beta   90.16585494
_cell_angle_gamma   59.75584301
_symmetry_Int_Tables_number   1
_chemical_formula_structural   GdAl17N18
_chemical_formula_sum   'Gd2 Al34 N36'
_cell_volume   820.95948138
_cell_formula_units_Z   2
loop_
 _symmetry_equiv_pos_site_id
 _symmetry_equiv_pos_as_xyz
  1  'x, y, z'
loop_
 _atom_site_type_symbol
 _atom_site_label
 _atom_site_symmetry_multiplicity
 _atom_site_fract_x
 _atom_site_fract_y
 _atom_site_fract_z
 _atom_site_occupancy
  Al  Al0  1  0.12080210  0.08366557  0.40528219  1
  Al  Al1  1  0.78593013  0.08678994  0.81618199  1
  Al  Al2  1  0.88510724  0.20128973  0.57573908  1
  Al  Al3  1  0.44505620  0.10003022  0.40589133  1
  Al  Al4  1  0.56427104  0.20547096  0.08570916  1
  Al  Al5  1  0.11414725  0.08815886  0.88165483  1
  Al  Al6  1  0.22090813  0.20554480  0.64506147  1
  Al  Al7  1  0.77721130  0.09034093  0.32049729  1
  Al  Al8  1  0.88123551  0.20403148  0.05351379  1
  Al  Al9  1  0.44670680  0.09412334  0.87711151  1
  Al  Al10  1  0.55363382  0.20673708  0.63041092  1
  Al  Al11  1  0.12028524  0.42981578  0.40505258  1
  Al  Al12  1  0.22252259  0.54262426  0.13905175  1
  Al  Al13  1  0.77666595  0.42827840  0.81208108  1
  Al  Al14  1  0.88586342  0.54568282  0.57660219  1
  Al  Al15  1  0.43662547  0.42359114  0.39770620  1
  Al  Al16  1  0.55932342  0.53741423  0.05376918  1
  Al  Al17  1  0.11323128  0.43140677  0.88137429  1
  Al  Al18  1  0.21804591  0.54464216  0.64303347  1
  Al  Al19  1  0.87987365  0.54952541  0.05379603  1
  Al  Al20  1  0.43772749  0.42958736  0.87613100  1
  Al  Al21  1  0.55255202  0.53996532  0.57836459  1
  Al  Al22  1  0.11779346  0.75757536  0.38559308  1
  Al  Al23  1  0.22319075  0.86756132  0.13850177  1
  Al  Al24  1  0.78034628  0.76252540  0.81454028  1
  Al  Al25  1  0.88426123  0.87510623  0.56297291  1
  Al  Al26  1  0.43352370  0.77085205  0.39651124  1
  Al  Al27  1  0.56741105  0.86282100  0.05972241  1
  Al  Al28  1  0.11504028  0.75875686  0.89434958  1
  Al  Al29  1  0.21894665  0.87058687  0.64323559  1
  Al  Al30  1  0.77635649  0.76661232  0.32063510  1
  Al  Al31  1  0.88412513  0.87392875  0.07278452  1
  Al  Al32  1  0.43765582  0.76444362  0.87491759  1
  Al  Al33  1  0.56177247  0.86904756  0.58164301  1
  Gd  Gd34  1  0.22275862  0.20547868  0.14298931  1
  Gd  Gd35  1  0.77938324  0.42675293  0.31778152  1
  N  N36  1  0.21928317  0.20728467  0.36056698  1
  N  N37  1  0.10635231  0.07468558  0.06492036  1
  N  N38  1  0.88185073  0.20817091  0.86812174  1
  N  N39  1  0.78442500  0.08601279  0.63358565  1
  N  N40  1  0.55549357  0.20546491  0.36034913  1
  N  N41  1  0.46963254  0.08448763  0.06248362  1
  N  N42  1  0.22006888  0.20637322  0.83202771  1
  N  N43  1  0.11720859  0.08959998  0.59146945  1
  N  N44  1  0.89578365  0.17849585  0.39330796  1
  N  N45  1  0.78282040  0.09466993  0.13026351  1
  N  N46  1  0.55537965  0.20770546  0.83795467  1
  N  N47  1  0.44342096  0.09575905  0.59487111  1
  N  N48  1  0.22254765  0.53629194  0.32640246  1
  N  N49  1  0.10514220  0.45324436  0.06503853  1
  N  N50  1  0.88139960  0.54364642  0.86747677  1
  N  N51  1  0.77861157  0.42696606  0.62556768  1
  N  N52  1  0.53129930  0.55045345  0.39008719  1
  N  N53  1  0.44054878  0.42837299  0.06885612  1
  N  N54  1  0.21693411  0.54610979  0.82528730  1
  N  N55  1  0.11733497  0.42615387  0.59166729  1
  N  N56  1  0.89498300  0.55951186  0.39374586  1
  N  N57  1  0.78124308  0.42594768  0.09987524  1
  N  N58  1  0.55573166  0.53816722  0.86389893  1
  N  N59  1  0.43798820  0.42680142  0.58988464  1
  N  N60  1  0.22194670  0.87529667  0.32597930  1
  N  N61  1  0.11720127  0.75781629  0.08163780  1
  N  N62  1  0.88212576  0.87464102  0.88542148  1
  N  N63  1  0.78226133  0.76383616  0.63297957  1
  N  N64  1  0.55972161  0.87170457  0.38689023  1
  N  N65  1  0.44006859  0.76339476  0.07226323  1
  N  N66  1  0.21680640  0.87006843  0.82534780  1
  N  N67  1  0.11746527  0.75810627  0.57355040  1
  N  N68  1  0.88455453  0.87441593  0.37596390  1
  N  N69  1  0.77791373  0.75862583  0.13214219  1
  N  N70  1  0.56122586  0.86625880  0.86674557  1
  N  N71  1  0.43815693  0.76704546  0.59125716  1
