# generated using pymatgen
data_GdAl17N18
_symmetry_space_group_name_H-M   'P 1'
_cell_length_a   9.51667305
_cell_length_b   9.58926683
_cell_length_c   10.41927272
_cell_angle_alpha   90.01286331
_cell_angle_beta   90.17899850
_cell_angle_gamma   59.75484905
_symmetry_Int_Tables_number   1
_chemical_formula_structural   GdAl17N18
_chemical_formula_sum   'Gd2 Al34 N36'
_cell_volume   821.40585237
_cell_formula_units_Z   2
loop_
 _symmetry_equiv_pos_site_id
 _symmetry_equiv_pos_as_xyz
  1  'x, y, z'
loop_
 _atom_site_type_symbol
 _atom_site_label
 _atom_site_symmetry_multiplicity
 _atom_site_fract_x
 _atom_site_fract_y
 _atom_site_fract_z
 _atom_site_occupancy
  Al  Al0  1  0.11908964  0.08473838  0.40483592  1
  Al  Al1  1  0.78082847  0.08966396  0.81525669  1
  Al  Al2  1  0.88606139  0.20198791  0.57687511  1
  Al  Al3  1  0.44098408  0.09625849  0.40438820  1
  Al  Al4  1  0.56637387  0.20431031  0.06207582  1
  Al  Al5  1  0.11412193  0.08722030  0.88248381  1
  Al  Al6  1  0.22309309  0.20501741  0.64625042  1
  Al  Al7  1  0.77671201  0.09073493  0.32027452  1
  Al  Al8  1  0.87923246  0.20421320  0.05346035  1
  Al  Al9  1  0.44711232  0.09318661  0.87960368  1
  Al  Al10  1  0.56217239  0.20223352  0.58324829  1
  Al  Al11  1  0.12004397  0.42951524  0.40485137  1
  Al  Al12  1  0.22323618  0.54308589  0.13814597  1
  Al  Al13  1  0.77877289  0.42679920  0.81293835  1
  Al  Al14  1  0.88667778  0.54486763  0.57703813  1
  Al  Al15  1  0.43284341  0.42989547  0.39815131  1
  Al  Al16  1  0.55650009  0.54153021  0.05302468  1
  Al  Al17  1  0.11382950  0.43169907  0.88184811  1
  Al  Al18  1  0.21942568  0.54314593  0.64379681  1
  Al  Al19  1  0.87962136  0.55012012  0.05351272  1
  Al  Al20  1  0.43798445  0.43055576  0.87623475  1
  Al  Al21  1  0.55353711  0.53974073  0.58140235  1
  Al  Al22  1  0.11624748  0.75813865  0.38552598  1
  Al  Al23  1  0.22347174  0.86721126  0.13825294  1
  Al  Al24  1  0.78194404  0.76263421  0.81516377  1
  Al  Al25  1  0.88520637  0.87383418  0.56409119  1
  Al  Al26  1  0.43320373  0.77084243  0.39295598  1
  Al  Al27  1  0.56469987  0.86154054  0.06096659  1
  Al  Al28  1  0.11507679  0.75935735  0.89538800  1
  Al  Al29  1  0.21644935  0.87173427  0.64264088  1
  Al  Al30  1  0.77682151  0.76564545  0.32002353  1
  Al  Al31  1  0.88233035  0.87543308  0.07317730  1
  Al  Al32  1  0.44176524  0.76267236  0.85537313  1
  Al  Al33  1  0.56257192  0.86840444  0.58325121  1
  Gd  Gd34  1  0.22014934  0.20642462  0.14095003  1
  Gd  Gd35  1  0.77787806  0.42800150  0.31624560  1
  N  N36  1  0.21852080  0.20738049  0.35880622  1
  N  N37  1  0.10417297  0.07421247  0.06522414  1
  N  N38  1  0.88238519  0.20712214  0.86714143  1
  N  N39  1  0.78296553  0.08698969  0.63320714  1
  N  N40  1  0.55984168  0.20329913  0.38627113  1
  N  N41  1  0.46825533  0.08219267  0.06849390  1
  N  N42  1  0.22102799  0.20586345  0.83308375  1
  N  N43  1  0.11798546  0.08998649  0.59081357  1
  N  N44  1  0.89404540  0.18037270  0.39362343  1
  N  N45  1  0.77789436  0.09724708  0.13251754  1
  N  N46  1  0.56174277  0.20527436  0.86750172  1
  N  N47  1  0.44404886  0.09445219  0.59493641  1
  N  N48  1  0.22187669  0.53646683  0.32638650  1
  N  N49  1  0.10478189  0.45462517  0.06483489  1
  N  N50  1  0.88223809  0.54365058  0.86699408  1
  N  N51  1  0.77994624  0.42652472  0.62628781  1
  N  N52  1  0.53129060  0.55196895  0.39346641  1
  N  N53  1  0.43997007  0.43116714  0.07176370  1
  N  N54  1  0.21740194  0.54623605  0.82562119  1
  N  N55  1  0.11844205  0.42518486  0.59130499  1
  N  N56  1  0.89491386  0.55878009  0.39362433  1
  N  N57  1  0.78062561  0.42658875  0.09830585  1
  N  N58  1  0.55672265  0.53800448  0.86236359  1
  N  N59  1  0.43858530  0.42745817  0.59189472  1
  N  N60  1  0.22010608  0.87600558  0.32762259  1
  N  N61  1  0.11549118  0.75901636  0.08260572  1
  N  N62  1  0.88232778  0.87569175  0.88504285  1
  N  N63  1  0.78332435  0.76300931  0.63325351  1
  N  N64  1  0.55988369  0.86959622  0.38827331  1
  N  N65  1  0.44085972  0.76280053  0.07997832  1
  N  N66  1  0.21593200  0.87037880  0.82469184  1
  N  N67  1  0.11785951  0.75708109  0.57337737  1
  N  N68  1  0.88317231  0.87494764  0.37668348  1
  N  N69  1  0.77737756  0.75868919  0.13214907  1
  N  N70  1  0.56232953  0.86615179  0.86701512  1
  N  N71  1  0.44080547  0.76550087  0.60232536  1
