# generated using pymatgen
data_GdAl17N18
_symmetry_space_group_name_H-M   'P 1'
_cell_length_a   9.50926243
_cell_length_b   9.51332329
_cell_length_c   10.12955398
_cell_angle_alpha   89.99882488
_cell_angle_beta   89.92592251
_cell_angle_gamma   59.98731551
_symmetry_Int_Tables_number   1
_chemical_formula_structural   GdAl17N18
_chemical_formula_sum   'Gd2 Al34 N36'
_cell_volume   793.49472154
_cell_formula_units_Z   2
loop_
 _symmetry_equiv_pos_site_id
 _symmetry_equiv_pos_as_xyz
  1  'x, y, z'
loop_
 _atom_site_type_symbol
 _atom_site_label
 _atom_site_symmetry_multiplicity
 _atom_site_fract_x
 _atom_site_fract_y
 _atom_site_fract_z
 _atom_site_occupancy
  Al  Al0  1  0.11075533  0.08425951  0.31771451  1
  Al  Al1  1  0.77680441  0.09222225  0.81183017  1
  Al  Al2  1  0.89018341  0.19885736  0.56773815  1
  Al  Al3  1  0.45243090  0.09043221  0.31797569  1
  Al  Al4  1  0.56165055  0.20337700  0.06320457  1
  Al  Al5  1  0.11249065  0.09145746  0.80374494  1
  Al  Al6  1  0.22228625  0.20550150  0.56101888  1
  Al  Al7  1  0.77953038  0.08891875  0.31217799  1
  Al  Al8  1  0.88666404  0.20015633  0.05301033  1
  Al  Al9  1  0.44691460  0.09318504  0.80389430  1
  Al  Al10  1  0.55674934  0.20647855  0.56186312  1
  Al  Al11  1  0.11074635  0.43828966  0.31772185  1
  Al  Al12  1  0.21950017  0.54537799  0.06291691  1
  Al  Al13  1  0.77776704  0.42775809  0.81208080  1
  Al  Al14  1  0.89017759  0.54424841  0.56774108  1
  Al  Al15  1  0.43914036  0.43008185  0.31298596  1
  Al  Al16  1  0.55266360  0.54031399  0.05326165  1
  Al  Al17  1  0.11248742  0.42933953  0.80374319  1
  Al  Al18  1  0.22325791  0.54017367  0.56161309  1
  Al  Al19  1  0.88665538  0.54648369  0.05301171  1
  Al  Al20  1  0.44272759  0.42688171  0.81211117  1
  Al  Al21  1  0.54880179  0.54224167  0.56748165  1
  Al  Al22  1  0.11103390  0.76113197  0.31301399  1
  Al  Al23  1  0.21950688  0.86842311  0.06291097  1
  Al  Al24  1  0.77680272  0.76426044  0.81183004  1
  Al  Al25  1  0.88830683  0.87248964  0.56161512  1
  Al  Al26  1  0.43914200  0.76406954  0.31298406  1
  Al  Al27  1  0.56164450  0.86827132  0.06320272  1
  Al  Al28  1  0.11034816  0.76146815  0.81259534  1
  Al  Al29  1  0.22325864  0.86985675  0.56161169  1
  Al  Al30  1  0.77952531  0.76484731  0.31217806  1
  Al  Al31  1  0.88920102  0.87204802  0.06371441  1
  Al  Al32  1  0.44272928  0.76367296  0.81210813  1
  Al  Al33  1  0.55674741  0.87006057  0.56186241  1
  Gd  Gd34  1  0.22308457  0.20512185  0.06756219  1
  Gd  Gd35  1  0.77956495  0.42686281  0.31338600  1
  N  N36  1  0.22086612  0.20621818  0.36385493  1
  N  N37  1  0.09362348  0.07972458  0.13064437  1
  N  N38  1  0.89116874  0.20171216  0.86344906  1
  N  N39  1  0.77579044  0.09225643  0.62421239  1
  N  N40  1  0.55740045  0.20807259  0.37269935  1
  N  N41  1  0.47732374  0.07798374  0.13265854  1
  N  N42  1  0.22267563  0.20530665  0.84614672  1
  N  N43  1  0.11341312  0.09125978  0.61683859  1
  N  N44  1  0.90055222  0.17581557  0.38394064  1
  N  N45  1  0.77854830  0.09484352  0.12089929  1
  N  N46  1  0.55448915  0.20495345  0.87182870  1
  N  N47  1  0.44692289  0.09318005  0.61429464  1
  N  N48  1  0.22361976  0.54125966  0.37347450  1
  N  N49  1  0.09360541  0.45996995  0.13065569  1
  N  N50  1  0.89116671  0.54040828  0.86344923  1
  N  N51  1  0.77753797  0.42787044  0.61665063  1
  N  N52  1  0.52645201  0.55342099  0.38110368  1
  N  N53  1  0.44436021  0.42791332  0.12027580  1
  N  N54  1  0.22131904  0.53894908  0.87191924  1
  N  N55  1  0.11340955  0.42861206  0.61683774  1
  N  N56  1  0.90054219  0.55693202  0.38394510  1
  N  N57  1  0.77902762  0.42713113  0.09060605  1
  N  N58  1  0.55201840  0.54063351  0.86486277  1
  N  N59  1  0.44305140  0.42630848  0.62389492  1
  N  N60  1  0.22362124  0.86841885  0.37347194  1
  N  N61  1  0.11050527  0.76139936  0.12242943  1
  N  N62  1  0.88906303  0.87211232  0.87333393  1
  N  N63  1  0.77578785  0.76523690  0.62421315  1
  N  N64  1  0.55739633  0.86782547  0.37269949  1
  N  N65  1  0.44436396  0.76101243  0.12027401  1
  N  N66  1  0.22132148  0.87301628  0.87191452  1
  N  N67  1  0.11035704  0.76146278  0.62220081  1
  N  N68  1  0.88886987  0.87221196  0.37104395  1
  N  N69  1  0.77854102  0.75990683  0.12089920  1
  N  N70  1  0.55448784  0.87384470  0.87182673  1
  N  N71  1  0.44305260  0.76391981  0.62389277  1
