# generated using pymatgen
data_GdAl17N18
_symmetry_space_group_name_H-M   'P 1'
_cell_length_a   9.51620678
_cell_length_b   9.59191924
_cell_length_c   10.42388602
_cell_angle_alpha   89.98938255
_cell_angle_beta   90.15301394
_cell_angle_gamma   59.74429418
_symmetry_Int_Tables_number   1
_chemical_formula_structural   GdAl17N18
_chemical_formula_sum   'Gd2 Al34 N36'
_cell_volume   821.86906117
_cell_formula_units_Z   2
loop_
 _symmetry_equiv_pos_site_id
 _symmetry_equiv_pos_as_xyz
  1  'x, y, z'
loop_
 _atom_site_type_symbol
 _atom_site_label
 _atom_site_symmetry_multiplicity
 _atom_site_fract_x
 _atom_site_fract_y
 _atom_site_fract_z
 _atom_site_occupancy
  Al  Al0  1  0.12051634  0.08340881  0.40519635  1
  Al  Al1  1  0.78162847  0.08924397  0.81547714  1
  Al  Al2  1  0.88614528  0.20141480  0.57661132  1
  Al  Al3  1  0.44211432  0.09684311  0.40490910  1
  Al  Al4  1  0.56680270  0.20388575  0.06185274  1
  Al  Al5  1  0.11356273  0.08807503  0.88163931  1
  Al  Al6  1  0.22193745  0.20547112  0.64590760  1
  Al  Al7  1  0.77678872  0.09053631  0.32037420  1
  Al  Al8  1  0.88022085  0.20381065  0.05365586  1
  Al  Al9  1  0.44642879  0.09330719  0.87791198  1
  Al  Al10  1  0.56059744  0.20329789  0.58940021  1
  Al  Al11  1  0.12024222  0.42978432  0.40521475  1
  Al  Al12  1  0.22299520  0.54272895  0.13829038  1
  Al  Al13  1  0.77676530  0.42817191  0.81245957  1
  Al  Al14  1  0.88620453  0.54552084  0.57692753  1
  Al  Al15  1  0.43411370  0.42822844  0.39728835  1
  Al  Al16  1  0.55867099  0.53726514  0.05454991  1
  Al  Al17  1  0.11320581  0.43176517  0.88155519  1
  Al  Al18  1  0.21858321  0.54412680  0.64351649  1
  Al  Al19  1  0.87969722  0.54978423  0.05356336  1
  Al  Al20  1  0.43746653  0.43108450  0.87547505  1
  Al  Al21  1  0.55296632  0.54029072  0.57919254  1
  Al  Al22  1  0.11734736  0.75798358  0.38550560  1
  Al  Al23  1  0.22298710  0.86751599  0.13823434  1
  Al  Al24  1  0.78038737  0.76281074  0.81495156  1
  Al  Al25  1  0.88514083  0.87420335  0.56367039  1
  Al  Al26  1  0.43353740  0.77062117  0.39651099  1
  Al  Al27  1  0.56672129  0.86287669  0.06107468  1
  Al  Al28  1  0.11445459  0.75930835  0.89449850  1
  Al  Al29  1  0.21924802  0.87047327  0.64340190  1
  Al  Al30  1  0.77691389  0.76613728  0.32034928  1
  Al  Al31  1  0.88317380  0.87489520  0.07305133  1
  Al  Al32  1  0.43769234  0.76452489  0.87579209  1
  Al  Al33  1  0.56192885  0.86867294  0.58260869  1
  Gd  Gd34  1  0.22086003  0.20642207  0.14182061  1
  Gd  Gd35  1  0.78024341  0.42649515  0.31746318  1
  N  N36  1  0.21887000  0.20743392  0.35975362  1
  N  N37  1  0.10529130  0.07427840  0.06479109  1
  N  N38  1  0.88169391  0.20797447  0.86750115  1
  N  N39  1  0.78323162  0.08681277  0.63363426  1
  N  N40  1  0.56019809  0.20307071  0.38515757  1
  N  N41  1  0.46801898  0.08300528  0.06699259  1
  N  N42  1  0.22013135  0.20652269  0.83252152  1
  N  N43  1  0.11789213  0.08953375  0.59145081  1
  N  N44  1  0.89553768  0.17855056  0.39368480  1
  N  N45  1  0.77859308  0.09673111  0.13180377  1
  N  N46  1  0.56051809  0.20584530  0.86363345  1
  N  N47  1  0.44352440  0.09464888  0.59579489  1
  N  N48  1  0.22223535  0.53618994  0.32630551  1
  N  N49  1  0.10477236  0.45417709  0.06476278  1
  N  N50  1  0.88139401  0.54379115  0.86720083  1
  N  N51  1  0.77902107  0.42698298  0.62560558  1
  N  N52  1  0.53207963  0.55048391  0.38983274  1
  N  N53  1  0.43978982  0.43000270  0.07145073  1
  N  N54  1  0.21670884  0.54637173  0.82534185  1
  N  N55  1  0.11791987  0.42574576  0.59154541  1
  N  N56  1  0.89517428  0.55948393  0.39391519  1
  N  N57  1  0.78146479  0.42590700  0.09971671  1
  N  N58  1  0.55580215  0.53870278  0.86378158  1
  N  N59  1  0.43792334  0.42848967  0.59148938  1
  N  N60  1  0.22192467  0.87516969  0.32610737  1
  N  N61  1  0.11628159  0.75846163  0.08193601  1
  N  N62  1  0.88179531  0.87543615  0.88507197  1
  N  N63  1  0.78255952  0.76358004  0.63309703  1
  N  N64  1  0.56008295  0.87078133  0.38648101  1
  N  N65  1  0.43990919  0.76312785  0.07241576  1
  N  N66  1  0.21702369  0.86997801  0.82535036  1
  N  N67  1  0.11780749  0.75786547  0.57358820  1
  N  N68  1  0.88421554  0.87463224  0.37628275  1
  N  N69  1  0.77804374  0.75830884  0.13229258  1
  N  N70  1  0.56122020  0.86630217  0.86705476  1
  N  N71  1  0.43828225  0.76698658  0.59083468  1
