# generated using pymatgen
data_GdAl17N18
_symmetry_space_group_name_H-M   'P 1'
_cell_length_a   9.53693484
_cell_length_b   9.53093193
_cell_length_c   10.18538349
_cell_angle_alpha   89.89939948
_cell_angle_beta   89.82551845
_cell_angle_gamma   60.00884114
_symmetry_Int_Tables_number   1
_chemical_formula_structural   GdAl17N18
_chemical_formula_sum   'Gd2 Al34 N36'
_cell_volume   801.84210009
_cell_formula_units_Z   2
loop_
 _symmetry_equiv_pos_site_id
 _symmetry_equiv_pos_as_xyz
  1  'x, y, z'
loop_
 _atom_site_type_symbol
 _atom_site_label
 _atom_site_symmetry_multiplicity
 _atom_site_fract_x
 _atom_site_fract_y
 _atom_site_fract_z
 _atom_site_occupancy
  Al  Al0  1  0.11151018  0.08519042  0.31598052  1
  Al  Al1  1  0.77632821  0.09248495  0.81110959  1
  Al  Al2  1  0.89071046  0.19837274  0.56687440  1
  Al  Al3  1  0.45244451  0.09026457  0.31691494  1
  Al  Al4  1  0.56088886  0.20451304  0.06209418  1
  Al  Al5  1  0.11232265  0.09086705  0.80295954  1
  Al  Al6  1  0.22312224  0.20355373  0.56049730  1
  Al  Al7  1  0.78004151  0.08921225  0.31102781  1
  Al  Al8  1  0.88681108  0.20059365  0.05186876  1
  Al  Al9  1  0.44656021  0.09333054  0.80341411  1
  Al  Al10  1  0.55815598  0.20461705  0.56093742  1
  Al  Al11  1  0.10894232  0.43491943  0.32216332  1
  Al  Al12  1  0.21964937  0.54623677  0.10370213  1
  Al  Al13  1  0.77755714  0.42715617  0.81208280  1
  Al  Al14  1  0.88866387  0.54403243  0.56728980  1
  Al  Al15  1  0.44591192  0.42640561  0.31670341  1
  Al  Al16  1  0.55245639  0.54046866  0.05189980  1
  Al  Al17  1  0.11154657  0.42886342  0.80048046  1
  Al  Al18  1  0.22589779  0.53566337  0.57388337  1
  Al  Al19  1  0.88533654  0.54733084  0.05159151  1
  Al  Al20  1  0.44249447  0.42664024  0.81010511  1
  Al  Al21  1  0.55109331  0.54162733  0.56689637  1
  Al  Al22  1  0.11085499  0.76199260  0.37745386  1
  Al  Al23  1  0.22315023  0.87314139  0.06442213  1
  Al  Al24  1  0.77594854  0.76406769  0.81110749  1
  Al  Al25  1  0.88131790  0.87557115  0.56300858  1
  Al  Al26  1  0.44127515  0.76363220  0.31196718  1
  Al  Al27  1  0.56050827  0.86921925  0.06198520  1
  Al  Al28  1  0.11242425  0.75579416  0.87739410  1
  Al  Al29  1  0.22736037  0.87299361  0.56253204  1
  Al  Al30  1  0.77879652  0.76472646  0.31112892  1
  Al  Al31  1  0.88027129  0.87695550  0.06437514  1
  Al  Al32  1  0.44284120  0.76340771  0.81138850  1
  Al  Al33  1  0.55694528  0.86991612  0.56090175  1
  Gd  Gd34  1  0.22250083  0.20903160  0.06387020  1
  Gd  Gd35  1  0.78098942  0.42629898  0.31103928  1
  N  N36  1  0.22197042  0.20474611  0.36514378  1
  N  N37  1  0.09394718  0.08305706  0.13010343  1
  N  N38  1  0.89124096  0.20099443  0.86333046  1
  N  N39  1  0.77548126  0.09302312  0.62446704  1
  N  N40  1  0.55924968  0.20565223  0.37299634  1
  N  N41  1  0.47579641  0.07932747  0.13167988  1
  N  N42  1  0.22202181  0.20505573  0.84392964  1
  N  N43  1  0.11290650  0.09177053  0.61713933  1
  N  N44  1  0.90154856  0.17535609  0.38335310  1
  N  N45  1  0.77707187  0.09738710  0.12103656  1
  N  N46  1  0.55425051  0.20524018  0.87164344  1
  N  N47  1  0.44747300  0.09255945  0.61420919  1
  N  N48  1  0.22733918  0.53593305  0.36122782  1
  N  N49  1  0.08808865  0.45940352  0.13590626  1
  N  N50  1  0.89086296  0.54001810  0.86294809  1
  N  N51  1  0.77815281  0.42685879  0.61733788  1
  N  N52  1  0.52930044  0.55334553  0.38158155  1
  N  N53  1  0.44816305  0.42673936  0.12414286  1
  N  N54  1  0.22275521  0.53419391  0.85319488  1
  N  N55  1  0.11173822  0.42603428  0.61329239  1
  N  N56  1  0.89855978  0.55783213  0.38491047  1
  N  N57  1  0.77823426  0.42755431  0.08918402  1
  N  N58  1  0.55165113  0.54029727  0.86450389  1
  N  N59  1  0.44793562  0.42344232  0.62119789  1
  N  N60  1  0.22867702  0.87226394  0.37208623  1
  N  N61  1  0.10813846  0.76406776  0.07902681  1
  N  N62  1  0.88166049  0.87537275  0.87282716  1
  N  N63  1  0.77459438  0.76444717  0.62458989  1
  N  N64  1  0.55772375  0.86809206  0.37231315  1
  N  N65  1  0.44565612  0.76034489  0.12057095  1
  N  N66  1  0.22447573  0.87588471  0.87167056  1
  N  N67  1  0.10976675  0.76217113  0.57659403  1
  N  N68  1  0.88196338  0.87547668  0.36970379  1
  N  N69  1  0.77644100  0.76000064  0.12092369  1
  N  N70  1  0.55404555  0.87375745  0.87161244  1
  N  N71  1  0.44490130  0.76293436  0.62406241  1
