# generated using pymatgen
data_GdAl17N18
_symmetry_space_group_name_H-M   'P 1'
_cell_length_a   9.51141683
_cell_length_b   9.59374624
_cell_length_c   10.43883801
_cell_angle_alpha   90.01170122
_cell_angle_beta   90.11974979
_cell_angle_gamma   59.71795747
_symmetry_Int_Tables_number   1
_chemical_formula_structural   GdAl17N18
_chemical_formula_sum   'Gd2 Al34 N36'
_cell_volume   822.57168924
_cell_formula_units_Z   2
loop_
 _symmetry_equiv_pos_site_id
 _symmetry_equiv_pos_as_xyz
  1  'x, y, z'
loop_
 _atom_site_type_symbol
 _atom_site_label
 _atom_site_symmetry_multiplicity
 _atom_site_fract_x
 _atom_site_fract_y
 _atom_site_fract_z
 _atom_site_occupancy
  Al  Al0  1  0.12030166  0.08325509  0.40573922  1
  Al  Al1  1  0.77954439  0.09028811  0.81529229  1
  Al  Al2  1  0.88660837  0.20137263  0.57765543  1
  Al  Al3  1  0.44108354  0.09590377  0.40278890  1
  Al  Al4  1  0.56589344  0.20422989  0.06340393  1
  Al  Al5  1  0.11333278  0.08787921  0.88133369  1
  Al  Al6  1  0.22376410  0.20475655  0.64622692  1
  Al  Al7  1  0.77764320  0.09000285  0.32047958  1
  Al  Al8  1  0.87917988  0.20375765  0.05296869  1
  Al  Al9  1  0.44626256  0.09360759  0.88104100  1
  Al  Al10  1  0.56234289  0.20224176  0.58072995  1
  Al  Al11  1  0.12048983  0.42961666  0.40577585  1
  Al  Al12  1  0.22219513  0.54351649  0.13843566  1
  Al  Al13  1  0.77661944  0.42834422  0.81271142  1
  Al  Al14  1  0.88671223  0.54526929  0.57763056  1
  Al  Al15  1  0.43367555  0.42947123  0.39590267  1
  Al  Al16  1  0.55853148  0.53769789  0.05558337  1
  Al  Al17  1  0.11340172  0.43206998  0.88126974  1
  Al  Al18  1  0.22039576  0.54296925  0.64360651  1
  Al  Al19  1  0.87934775  0.55041078  0.05298311  1
  Al  Al20  1  0.43783479  0.43085077  0.87760646  1
  Al  Al21  1  0.55380661  0.53968287  0.57858875  1
  Al  Al22  1  0.11706641  0.75805997  0.38615463  1
  Al  Al23  1  0.22222821  0.86772065  0.13840571  1
  Al  Al24  1  0.77986672  0.76343167  0.81530660  1
  Al  Al25  1  0.88556252  0.87382840  0.56463918  1
  Al  Al26  1  0.43365699  0.77020413  0.39612388  1
  Al  Al27  1  0.56585820  0.86318364  0.06308982  1
  Al  Al28  1  0.11447671  0.75947526  0.89441332  1
  Al  Al29  1  0.22003628  0.87003292  0.64353404  1
  Al  Al30  1  0.77761526  0.76558928  0.32050010  1
  Al  Al31  1  0.88256090  0.87544045  0.07274043  1
  Al  Al32  1  0.43799446  0.76459507  0.87645583  1
  Al  Al33  1  0.56229159  0.86871574  0.58147285  1
  Gd  Gd34  1  0.21742791  0.20795701  0.14145025  1
  Gd  Gd35  1  0.78171302  0.42582222  0.31714444  1
  N  N36  1  0.21767565  0.20774583  0.35890952  1
  N  N37  1  0.10426811  0.07383034  0.06414775  1
  N  N38  1  0.88127899  0.20794715  0.86695055  1
  N  N39  1  0.78224162  0.08735588  0.63350571  1
  N  N40  1  0.56014381  0.20283013  0.38524068  1
  N  N41  1  0.46644974  0.08339570  0.07058059  1
  N  N42  1  0.22081047  0.20623680  0.83292621  1
  N  N43  1  0.11872444  0.08929453  0.59175613  1
  N  N44  1  0.89515677  0.17865037  0.39476487  1
  N  N45  1  0.77816418  0.09690120  0.13278772  1
  N  N46  1  0.56112394  0.20543667  0.86967311  1
  N  N47  1  0.44422476  0.09455128  0.59345632  1
  N  N48  1  0.22154723  0.53660155  0.32621749  1
  N  N49  1  0.10445728  0.45517312  0.06408236  1
  N  N50  1  0.88133922  0.54410589  0.86696791  1
  N  N51  1  0.77940870  0.42695573  0.62616168  1
  N  N52  1  0.53321015  0.55011786  0.38912857  1
  N  N53  1  0.43958037  0.43084048  0.07355865  1
  N  N54  1  0.21774843  0.54599970  0.82535958  1
  N  N55  1  0.11881372  0.42520607  0.59181782  1
  N  N56  1  0.89536199  0.55941044  0.39473007  1
  N  N57  1  0.78198610  0.42577287  0.09954979  1
  N  N58  1  0.55585318  0.53870852  0.86489729  1
  N  N59  1  0.43907023  0.42762500  0.58982813  1
  N  N60  1  0.22153308  0.87512111  0.32633657  1
  N  N61  1  0.11562328  0.75889011  0.08177290  1
  N  N62  1  0.88158851  0.87596641  0.88488303  1
  N  N63  1  0.78244275  0.76357508  0.63357537  1
  N  N64  1  0.56028099  0.87001654  0.38558025  1
  N  N65  1  0.43942063  0.76328596  0.07330369  1
  N  N66  1  0.21752473  0.86972621  0.82523994  1
  N  N67  1  0.11846375  0.75731309  0.57398295  1
  N  N68  1  0.88399323  0.87463348  0.37728008  1
  N  N69  1  0.77811441  0.75836315  0.13268390  1
  N  N70  1  0.56114436  0.86692697  0.86910346  1
  N  N71  1  0.43912209  0.76643677  0.59054965  1
