# generated using pymatgen
data_GdAl17N18
_symmetry_space_group_name_H-M   'P 1'
_cell_length_a   9.48561873
_cell_length_b   9.50871151
_cell_length_c   10.40761758
_cell_angle_alpha   90.00000023
_cell_angle_beta   89.52599989
_cell_angle_gamma   59.91943549
_symmetry_Int_Tables_number   1
_chemical_formula_structural   GdAl17N18
_chemical_formula_sum   'Gd2 Al34 N36'
_cell_volume   812.26231230
_cell_formula_units_Z   2
loop_
 _symmetry_equiv_pos_site_id
 _symmetry_equiv_pos_as_xyz
  1  'x, y, z'
loop_
 _atom_site_type_symbol
 _atom_site_label
 _atom_site_symmetry_multiplicity
 _atom_site_fract_x
 _atom_site_fract_y
 _atom_site_fract_z
 _atom_site_occupancy
  Al  Al0  1  0.12528237  0.08270896  0.39860417  1
  Al  Al1  1  0.77557505  0.09128141  0.81157229  1
  Al  Al2  1  0.88499082  0.20203953  0.57243595  1
  Al  Al3  1  0.45807224  0.08760125  0.32125199  1
  Al  Al4  1  0.55979730  0.20450892  0.06678081  1
  Al  Al5  1  0.11194344  0.08652993  0.87336575  1
  Al  Al6  1  0.21969113  0.20679184  0.63864013  1
  Al  Al7  1  0.78314943  0.08838526  0.31496836  1
  Al  Al8  1  0.87613077  0.20445649  0.04611412  1
  Al  Al9  1  0.45102577  0.09112452  0.81697692  1
  Al  Al10  1  0.55546109  0.20549341  0.56575389  1
  Al  Al11  1  0.12528238  0.42528349  0.39860418  1
  Al  Al12  1  0.21412594  0.54770533  0.13346759  1
  Al  Al13  1  0.77432986  0.42947246  0.80838447  1
  Al  Al14  1  0.88499080  0.54624445  0.57243594  1
  Al  Al15  1  0.44497785  0.42600553  0.31556393  1
  Al  Al16  1  0.55251691  0.54037894  0.05631495  1
  Al  Al17  1  0.11194341  0.43480148  0.87336574  1
  Al  Al18  1  0.21866466  0.54419226  0.63622575  1
  Al  Al19  1  0.87613078  0.55268755  0.04611413  1
  Al  Al20  1  0.44984132  0.42402720  0.81410915  1
  Al  Al21  1  0.54837058  0.54245209  0.56699038  1
  Al  Al22  1  0.11840993  0.75743244  0.38304416  1
  Al  Al23  1  0.21412594  0.87144357  0.13346760  1
  Al  Al24  1  0.77557504  0.76641838  0.81157229  1
  Al  Al25  1  0.88261707  0.87532887  0.56128477  1
  Al  Al26  1  0.44497785  0.76229139  0.31556393  1
  Al  Al27  1  0.55979730  0.86896857  0.06678081  1
  Al  Al28  1  0.11641558  0.75842964  0.88702015  1
  Al  Al29  1  0.21866470  0.87041787  0.63622574  1
  Al  Al30  1  0.78314943  0.76174009  0.31496836  1
  Al  Al31  1  0.88246967  0.87540257  0.06601746  1
  Al  Al32  1  0.44984135  0.75940626  0.81410915  1
  Al  Al33  1  0.55546110  0.87232028  0.56575389  1
  Gd  Gd34  1  0.20679037  0.21324224  0.12549156  1
  Gd  Gd35  1  0.78181174  0.42573151  0.31297856  1
  N  N36  1  0.22355014  0.20486234  0.34587694  1
  N  N37  1  0.10120672  0.07141061  0.05455875  1
  N  N38  1  0.87850623  0.20862425  0.86003227  1
  N  N39  1  0.77632610  0.09057265  0.62808480  1
  N  N40  1  0.55780125  0.20702580  0.37927903  1
  N  N41  1  0.47643876  0.07841801  0.13505927  1
  N  N42  1  0.21606042  0.20860721  0.82904353  1
  N  N43  1  0.11968722  0.08879256  0.58398569  1
  N  N44  1  0.89823795  0.17896390  0.38935911  1
  N  N45  1  0.77930547  0.09578174  0.12757281  1
  N  N46  1  0.55343890  0.20645359  0.87956960  1
  N  N47  1  0.45238964  0.09044257  0.62931379  1
  N  N48  1  0.21496600  0.54066868  0.31991156  1
  N  N49  1  0.10120671  0.46065750  0.05455874  1
  N  N50  1  0.87850621  0.54614434  0.86003227  1
  N  N51  1  0.77654876  0.42836301  0.62002521  1
  N  N52  1  0.52370879  0.55478299  0.38613992  1
  N  N53  1  0.45213501  0.42479818  0.12641896  1
  N  N54  1  0.21709893  0.54645635  0.81911031  1
  N  N55  1  0.11968721  0.42479504  0.58398569  1
  N  N56  1  0.89823795  0.55607292  0.38935910  1
  N  N57  1  0.78257627  0.42534927  0.09471341  1
  N  N58  1  0.55094274  0.54116603  0.87207844  1
  N  N59  1  0.45239526  0.42188211  0.62822275  1
  N  N60  1  0.21496601  0.87764013  0.31991157  1
  N  N61  1  0.11636358  0.75845562  0.07263402  1
  N  N62  1  0.88111683  0.87607900  0.87851875  1
  N  N63  1  0.77632612  0.76637604  0.62808480  1
  N  N64  1  0.55780125  0.86844772  0.37927904  1
  N  N65  1  0.45213501  0.75634158  0.12641896  1
  N  N66  1  0.21709896  0.86971955  0.81911031  1
  N  N67  1  0.11815070  0.75756206  0.56860693  1
  N  N68  1  0.88407739  0.87459870  0.37410789  1
  N  N69  1  0.77930547  0.75818759  0.12757281  1
  N  N70  1  0.55343889  0.87338232  0.87956960  1
  N  N71  1  0.45239530  0.75899738  0.62822275  1
