# generated using pymatgen
data_GdAl17N18
_symmetry_space_group_name_H-M   'P 1'
_cell_length_a   9.50897954
_cell_length_b   9.51312092
_cell_length_c   10.12980533
_cell_angle_alpha   90.00000017
_cell_angle_beta   89.92923419
_cell_angle_gamma   59.98559149
_symmetry_Int_Tables_number   1
_chemical_formula_structural   GdAl17N18
_chemical_formula_sum   'Gd2 Al34 N36'
_cell_volume   793.46019758
_cell_formula_units_Z   2
loop_
 _symmetry_equiv_pos_site_id
 _symmetry_equiv_pos_as_xyz
  1  'x, y, z'
loop_
 _atom_site_type_symbol
 _atom_site_label
 _atom_site_symmetry_multiplicity
 _atom_site_fract_x
 _atom_site_fract_y
 _atom_site_fract_z
 _atom_site_occupancy
  Al  Al0  1  0.11075530  0.08426176  0.30280979  1
  Al  Al1  1  0.77686465  0.09219935  0.79693269  1
  Al  Al2  1  0.89021056  0.19886513  0.55285595  1
  Al  Al3  1  0.45243980  0.09044492  0.30310620  1
  Al  Al4  1  0.56167712  0.20337646  0.04831764  1
  Al  Al5  1  0.11253810  0.09144447  0.78885118  1
  Al  Al6  1  0.22230757  0.20551103  0.54613459  1
  Al  Al7  1  0.77954141  0.08892796  0.29727549  1
  Al  Al8  1  0.88668769  0.20015274  0.03811592  1
  Al  Al9  1  0.44695056  0.09318954  0.78902624  1
  Al  Al10  1  0.55677951  0.20648389  0.54699009  1
  Al  Al11  1  0.11075531  0.43831255  0.30280979  1
  Al  Al12  1  0.21953882  0.54538235  0.04796065  1
  Al  Al13  1  0.77781261  0.42775851  0.79720187  1
  Al  Al14  1  0.89021056  0.54425395  0.55285596  1
  Al  Al15  1  0.43914992  0.43009675  0.29808509  1
  Al  Al16  1  0.55270000  0.54031482  0.03836536  1
  Al  Al17  1  0.11253811  0.42934705  0.78885119  1
  Al  Al18  1  0.22328319  0.54018957  0.54665108  1
  Al  Al19  1  0.88668769  0.54648921  0.03811592  1
  Al  Al20  1  0.44276468  0.42688884  0.79720839  1
  Al  Al21  1  0.54882872  0.54225045  0.55259876  1
  Al  Al22  1  0.11105825  0.76113568  0.29796634  1
  Al  Al23  1  0.21953882  0.86840846  0.04796064  1
  Al  Al24  1  0.77686465  0.76426565  0.79693269  1
  Al  Al25  1  0.88835586  0.87248689  0.54664370  1
  Al  Al26  1  0.43914990  0.76408295  0.29808508  1
  Al  Al27  1  0.56167715  0.86827605  0.04831764  1
  Al  Al28  1  0.11039851  0.76146555  0.79755253  1
  Al  Al29  1  0.22328319  0.86985686  0.54665107  1
  Al  Al30  1  0.77954142  0.76486027  0.29727549  1
  Al  Al31  1  0.88925963  0.87203502  0.04878208  1
  Al  Al32  1  0.44276468  0.76367611  0.79720839  1
  Al  Al33  1  0.55677951  0.87006623  0.54699008  1
  Gd  Gd34  1  0.22309319  0.20511822  0.05269837  1
  Gd  Gd35  1  0.77956795  0.42688085  0.29850071  1
  N  N36  1  0.22086397  0.20623283  0.34896407  1
  N  N37  1  0.09364876  0.07969084  0.11574362  1
  N  N38  1  0.89121287  0.20170624  0.84856099  1
  N  N39  1  0.77584304  0.09223591  0.60931442  1
  N  N40  1  0.55741214  0.20808533  0.35782490  1
  N  N41  1  0.47734776  0.07799094  0.11779129  1
  N  N42  1  0.22270897  0.20531032  0.83128555  1
  N  N43  1  0.11345445  0.09124829  0.60194403  1
  N  N44  1  0.90055722  0.17583023  0.36905908  1
  N  N45  1  0.77858489  0.09482912  0.10599921  1
  N  N46  1  0.55453911  0.20495130  0.85694208  1
  N  N47  1  0.44694931  0.09319016  0.59942762  1
  N  N48  1  0.22361698  0.54130268  0.35852752  1
  N  N49  1  0.09364876  0.45999003  0.11574362  1
  N  N50  1  0.89121288  0.54041052  0.84856099  1
  N  N51  1  0.77757198  0.42787882  0.60177894  1
  N  N52  1  0.52645603  0.55343679  0.36622635  1
  N  N53  1  0.44439105  0.42792192  0.10537339  1
  N  N54  1  0.22135075  0.53898892  0.85698146  1
  N  N55  1  0.11345444  0.42862689  0.60194404  1
  N  N56  1  0.90055723  0.55694219  0.36905909  1
  N  N57  1  0.77907218  0.42712873  0.07572335  1
  N  N58  1  0.55206064  0.54063450  0.84997302  1
  N  N59  1  0.44306862  0.42632684  0.60899575  1
  N  N60  1  0.22361697  0.86840995  0.35852752  1
  N  N61  1  0.11055791  0.76138587  0.10749810  1
  N  N62  1  0.88916168  0.87208398  0.85841325  1
  N  N63  1  0.77584302  0.76525070  0.60931442  1
  N  N64  1  0.55741215  0.86783215  0.35782489  1
  N  N65  1  0.44439106  0.76101665  0.10537339  1
  N  N66  1  0.22135075  0.87298996  0.85698146  1
  N  N67  1  0.11039522  0.76146720  0.60724147  1
  N  N68  1  0.88892487  0.87220239  0.35608738  1
  N  N69  1  0.77858490  0.75991563  0.10599921  1
  N  N70  1  0.55453911  0.87383923  0.85694208  1
  N  N71  1  0.44306862  0.76393417  0.60899575  1
