# generated using pymatgen
data_GdAl17N18
_symmetry_space_group_name_H-M   'P 1'
_cell_length_a   9.49008497
_cell_length_b   9.53852123
_cell_length_c   10.46719358
_cell_angle_alpha   90.05761725
_cell_angle_beta   90.06061076
_cell_angle_gamma   59.83197116
_symmetry_Int_Tables_number   1
_chemical_formula_structural   GdAl17N18
_chemical_formula_sum   'Gd2 Al34 N36'
_cell_volume   819.16974474
_cell_formula_units_Z   2
loop_
 _symmetry_equiv_pos_site_id
 _symmetry_equiv_pos_as_xyz
  1  'x, y, z'
loop_
 _atom_site_type_symbol
 _atom_site_label
 _atom_site_symmetry_multiplicity
 _atom_site_fract_x
 _atom_site_fract_y
 _atom_site_fract_z
 _atom_site_occupancy
  Al  Al0  1  0.12064588  0.08287908  0.40646822  1
  Al  Al1  1  0.78065695  0.08909666  0.81555131  1
  Al  Al2  1  0.88544448  0.20286706  0.57815460  1
  Al  Al3  1  0.44043287  0.09582085  0.40285792  1
  Al  Al4  1  0.56343278  0.21014058  0.06429385  1
  Al  Al5  1  0.11542541  0.08629599  0.88133658  1
  Al  Al6  1  0.22613252  0.20310224  0.64636752  1
  Al  Al7  1  0.77801779  0.09038158  0.32004739  1
  Al  Al8  1  0.87846518  0.20544147  0.05220790  1
  Al  Al9  1  0.44750255  0.09099038  0.88603389  1
  Al  Al10  1  0.56202504  0.20345620  0.58033408  1
  Al  Al11  1  0.11930330  0.42911655  0.40648147  1
  Al  Al12  1  0.22272310  0.54347622  0.13869356  1
  Al  Al13  1  0.77805563  0.42798310  0.81460918  1
  Al  Al14  1  0.88573884  0.54442893  0.57844866  1
  Al  Al15  1  0.43446563  0.43179945  0.37919801  1
  Al  Al16  1  0.55199425  0.54301472  0.05772645  1
  Al  Al17  1  0.11591941  0.43074824  0.88221537  1
  Al  Al18  1  0.21727999  0.54441873  0.64288450  1
  Al  Al19  1  0.88006650  0.54988624  0.05296994  1
  Al  Al20  1  0.44562947  0.42834432  0.84213593  1
  Al  Al21  1  0.55055684  0.54606520  0.57584905  1
  Al  Al22  1  0.11549063  0.76014195  0.38790141  1
  Al  Al23  1  0.21216785  0.87292439  0.13883814  1
  Al  Al24  1  0.77869722  0.76319212  0.81629157  1
  Al  Al25  1  0.88276743  0.87435912  0.56556970  1
  Al  Al26  1  0.44335927  0.76482022  0.31955085  1
  Al  Al27  1  0.56368488  0.85971885  0.06696449  1
  Al  Al28  1  0.11629827  0.75841991  0.89479680  1
  Al  Al29  1  0.21525981  0.87196312  0.64317539  1
  Al  Al30  1  0.77892849  0.76416497  0.32013292  1
  Al  Al31  1  0.88081681  0.87603231  0.07153479  1
  Al  Al32  1  0.45034845  0.75862675  0.81644786  1
  Al  Al33  1  0.55966129  0.86320792  0.57339906  1
  Gd  Gd34  1  0.21843555  0.20818826  0.14245046  1
  Gd  Gd35  1  0.77784323  0.42640628  0.31609393  1
  N  N36  1  0.21820942  0.20735506  0.35883830  1
  N  N37  1  0.10464337  0.07528590  0.06249777  1
  N  N38  1  0.88230618  0.20731848  0.86679940  1
  N  N39  1  0.78175509  0.08764176  0.63420071  1
  N  N40  1  0.55925249  0.20611479  0.38754212  1
  N  N41  1  0.46817207  0.08262243  0.07244781  1
  N  N42  1  0.22394005  0.20423121  0.83233458  1
  N  N43  1  0.11889038  0.08929568  0.59102577  1
  N  N44  1  0.89407028  0.18077634  0.39573529  1
  N  N45  1  0.77860407  0.09710387  0.13303815  1
  N  N46  1  0.56158776  0.20575540  0.87170523  1
  N  N47  1  0.44572744  0.09165267  0.59057639  1
  N  N48  1  0.21693229  0.53941783  0.32801506  1
  N  N49  1  0.10546823  0.45460593  0.06382185  1
  N  N50  1  0.88372742  0.54303897  0.86699286  1
  N  N51  1  0.77733620  0.42796520  0.62751550  1
  N  N52  1  0.52536957  0.56095597  0.39493252  1
  N  N53  1  0.44426555  0.43062706  0.09616977  1
  N  N54  1  0.21740129  0.54617932  0.82456561  1
  N  N55  1  0.11873648  0.42438106  0.59120213  1
  N  N56  1  0.89387423  0.55756288  0.39526331  1
  N  N57  1  0.78145031  0.42687393  0.09914297  1
  N  N58  1  0.55529650  0.54243940  0.87242855  1
  N  N59  1  0.44470681  0.42729782  0.61140612  1
  N  N60  1  0.21272023  0.87950939  0.32495630  1
  N  N61  1  0.11472196  0.75857749  0.08009454  1
  N  N62  1  0.88160106  0.87514563  0.88459858  1
  N  N63  1  0.77876445  0.76417995  0.63372330  1
  N  N64  1  0.55702504  0.86668093  0.38401958  1
  N  N65  1  0.45081650  0.75716466  0.13192305  1
  N  N66  1  0.21698733  0.86934155  0.82611654  1
  N  N67  1  0.11704232  0.75789523  0.57365313  1
  N  N68  1  0.88150743  0.87572815  0.37925035  1
  N  N69  1  0.77914698  0.75795870  0.13363428  1
  N  N70  1  0.56063246  0.86094944  0.87902748  1
  N  N71  1  0.44885758  0.76076232  0.63398280  1
