# generated using pymatgen
data_GdAl17N18
_symmetry_space_group_name_H-M   'P 1'
_cell_length_a   9.54419041
_cell_length_b   9.54028277
_cell_length_c   10.27098796
_cell_angle_alpha   90.31094788
_cell_angle_beta   89.54685202
_cell_angle_gamma   60.09441741
_symmetry_Int_Tables_number   1
_chemical_formula_structural   GdAl17N18
_chemical_formula_sum   'Gd2 Al34 N36'
_cell_volume   810.61874587
_cell_formula_units_Z   2
loop_
 _symmetry_equiv_pos_site_id
 _symmetry_equiv_pos_as_xyz
  1  'x, y, z'
loop_
 _atom_site_type_symbol
 _atom_site_label
 _atom_site_symmetry_multiplicity
 _atom_site_fract_x
 _atom_site_fract_y
 _atom_site_fract_z
 _atom_site_occupancy
  Al  Al0  1  0.11851783  0.08103114  0.36595103  1
  Al  Al1  1  0.77473257  0.09140956  0.80845821  1
  Al  Al2  1  0.88496135  0.20143659  0.56944823  1
  Al  Al3  1  0.46047598  0.08490359  0.31632694  1
  Al  Al4  1  0.56072459  0.20409119  0.06153550  1
  Al  Al5  1  0.10722412  0.10078547  0.81282641  1
  Al  Al6  1  0.23154476  0.20075294  0.57374224  1
  Al  Al7  1  0.78309400  0.08606543  0.30863093  1
  Al  Al8  1  0.88161072  0.20329027  0.04341434  1
  Al  Al9  1  0.44444979  0.09540092  0.80868823  1
  Al  Al10  1  0.55780564  0.20541069  0.56035639  1
  Al  Al11  1  0.12084678  0.43149143  0.38805352  1
  Al  Al12  1  0.21249777  0.54961480  0.12727220  1
  Al  Al13  1  0.77234049  0.43147652  0.80573272  1
  Al  Al14  1  0.88502435  0.54503100  0.56801963  1
  Al  Al15  1  0.44640905  0.42418715  0.30927460  1
  Al  Al16  1  0.54935398  0.54225550  0.05087151  1
  Al  Al17  1  0.10984407  0.43839092  0.86785059  1
  Al  Al18  1  0.21870395  0.54305649  0.63149524  1
  Al  Al19  1  0.87342363  0.55370280  0.04203388  1
  Al  Al20  1  0.44861336  0.42472331  0.80979357  1
  Al  Al21  1  0.55003307  0.54022846  0.56146689  1
  Al  Al22  1  0.11804954  0.75432043  0.37989515  1
  Al  Al23  1  0.21318757  0.87160343  0.13405628  1
  Al  Al24  1  0.77467456  0.76776940  0.80718198  1
  Al  Al25  1  0.88188716  0.87519138  0.55738737  1
  Al  Al26  1  0.44976081  0.75754143  0.31181034  1
  Al  Al27  1  0.56050497  0.86875530  0.06184272  1
  Al  Al28  1  0.11591076  0.76223914  0.88209799  1
  Al  Al29  1  0.22168217  0.86495507  0.62771630  1
  Al  Al30  1  0.78274829  0.76090491  0.30859057  1
  Al  Al31  1  0.88204012  0.87647593  0.06167625  1
  Al  Al32  1  0.44808901  0.76191421  0.81015148  1
  Al  Al33  1  0.55826668  0.86885391  0.56010319  1
  Gd  Gd34  1  0.22008327  0.20674960  0.08838542  1
  Gd  Gd35  1  0.78644761  0.41880880  0.30519332  1
  N  N36  1  0.23081941  0.19861866  0.36543157  1
  N  N37  1  0.08641509  0.08479106  0.10280966  1
  N  N38  1  0.88284148  0.20717138  0.85492590  1
  N  N39  1  0.77541706  0.09061076  0.62330605  1
  N  N40  1  0.55969778  0.20587719  0.37301743  1
  N  N41  1  0.48169768  0.07574834  0.13303941  1
  N  N42  1  0.22081485  0.20903012  0.85017154  1
  N  N43  1  0.11332927  0.09332784  0.60367641  1
  N  N44  1  0.89967092  0.17388738  0.38740776  1
  N  N45  1  0.77652002  0.09790119  0.12006777  1
  N  N46  1  0.55319400  0.20663146  0.87207200  1
  N  N47  1  0.45151767  0.09028267  0.61932078  1
  N  N48  1  0.21774560  0.53941732  0.31557092  1
  N  N49  1  0.09358023  0.46708168  0.05490441  1
  N  N50  1  0.87843750  0.54719065  0.85303934  1
  N  N51  1  0.77569354  0.42807035  0.61452738  1
  N  N52  1  0.53054898  0.54896828  0.37805032  1
  N  N53  1  0.44889125  0.42559365  0.11837205  1
  N  N54  1  0.21746386  0.54802233  0.81638949  1
  N  N55  1  0.11790112  0.42751946  0.57727856  1
  N  N56  1  0.89721737  0.55498536  0.38103989  1
  N  N57  1  0.77559409  0.42946297  0.08561044  1
  N  N58  1  0.54908932  0.54308319  0.86474450  1
  N  N59  1  0.45097733  0.42216485  0.62149085  1
  N  N60  1  0.22369971  0.86494498  0.32492246  1
  N  N61  1  0.11480569  0.76125802  0.06928593  1
  N  N62  1  0.88207900  0.87636239  0.87218832  1
  N  N63  1  0.77598409  0.76577342  0.62176407  1
  N  N64  1  0.56048329  0.86582440  0.37327993  1
  N  N65  1  0.44928693  0.75903640  0.12036168  1
  N  N66  1  0.21717004  0.87311006  0.81658437  1
  N  N67  1  0.11530301  0.75666573  0.56666452  1
  N  N68  1  0.88552265  0.87250218  0.36766232  1
  N  N69  1  0.77751406  0.75996568  0.12065485  1
  N  N70  1  0.55296454  0.87571765  0.87202238  1
  N  N71  1  0.45195545  0.75830957  0.62083179  1
