# generated using pymatgen
data_GdAl17N18
_symmetry_space_group_name_H-M   'P 1'
_cell_length_a   9.53355399
_cell_length_b   9.51401296
_cell_length_c   10.30215525
_cell_angle_alpha   90.12740559
_cell_angle_beta   89.59255961
_cell_angle_gamma   60.04193238
_symmetry_Int_Tables_number   1
_chemical_formula_structural   GdAl17N18
_chemical_formula_sum   'Gd2 Al34 N36'
_cell_volume   809.54317161
_cell_formula_units_Z   2
loop_
 _symmetry_equiv_pos_site_id
 _symmetry_equiv_pos_as_xyz
  1  'x, y, z'
loop_
 _atom_site_type_symbol
 _atom_site_label
 _atom_site_symmetry_multiplicity
 _atom_site_fract_x
 _atom_site_fract_y
 _atom_site_fract_z
 _atom_site_occupancy
  Al  Al0  1  0.10856370  0.09062053  0.32065086  1
  Al  Al1  1  0.77604394  0.09158813  0.81017791  1
  Al  Al2  1  0.88823908  0.20062702  0.56518308  1
  Al  Al3  1  0.45536629  0.08861575  0.31615284  1
  Al  Al4  1  0.56089510  0.20493150  0.06292210  1
  Al  Al5  1  0.10421937  0.09980730  0.80071922  1
  Al  Al6  1  0.22736469  0.19728814  0.56477986  1
  Al  Al7  1  0.78148413  0.08839645  0.30980646  1
  Al  Al8  1  0.88427611  0.20289194  0.05007316  1
  Al  Al9  1  0.44639096  0.09362341  0.80278887  1
  Al  Al10  1  0.55812183  0.20523309  0.55987007  1
  Al  Al11  1  0.11772259  0.43062664  0.36341772  1
  Al  Al12  1  0.21345253  0.54813680  0.13447203  1
  Al  Al13  1  0.77292261  0.42907221  0.81017305  1
  Al  Al14  1  0.88439949  0.54543866  0.56900314  1
  Al  Al15  1  0.44935374  0.42498639  0.31258807  1
  Al  Al16  1  0.54958192  0.54224830  0.05109904  1
  Al  Al17  1  0.10520844  0.42978256  0.80577226  1
  Al  Al18  1  0.22211135  0.54501302  0.62683750  1
  Al  Al19  1  0.88456727  0.54691110  0.04436762  1
  Al  Al20  1  0.44737674  0.42439499  0.80991047  1
  Al  Al21  1  0.55268532  0.53982780  0.56314962  1
  Al  Al22  1  0.11806494  0.75849873  0.38336047  1
  Al  Al23  1  0.21589789  0.86700373  0.13515775  1
  Al  Al24  1  0.77420365  0.76776591  0.80895413  1
  Al  Al25  1  0.88079710  0.87652674  0.55914248  1
  Al  Al26  1  0.44912028  0.75937069  0.31362843  1
  Al  Al27  1  0.56163805  0.86868737  0.06307458  1
  Al  Al28  1  0.11637684  0.75861013  0.88188635  1
  Al  Al29  1  0.22114354  0.86674089  0.62697349  1
  Al  Al30  1  0.78317777  0.76331259  0.30926091  1
  Al  Al31  1  0.88183024  0.87549622  0.06176843  1
  Al  Al32  1  0.44735642  0.76173260  0.81066765  1
  Al  Al33  1  0.55816625  0.86923575  0.55926461  1
  Gd  Gd34  1  0.22591551  0.20186846  0.06167047  1
  Gd  Gd35  1  0.78613184  0.42552130  0.30318486  1
  N  N36  1  0.22705337  0.19984187  0.37150559  1
  N  N37  1  0.08455794  0.09257116  0.13327593  1
  N  N38  1  0.88716427  0.20360922  0.86298302  1
  N  N39  1  0.77585169  0.09255221  0.62453553  1
  N  N40  1  0.55919196  0.20600547  0.37352503  1
  N  N41  1  0.47852504  0.07845326  0.13411143  1
  N  N42  1  0.21998366  0.20672011  0.84061145  1
  N  N43  1  0.10868573  0.09554801  0.61436687  1
  N  N44  1  0.89862240  0.17872168  0.38447974  1
  N  N45  1  0.77791672  0.09627856  0.12085997  1
  N  N46  1  0.55256947  0.20578197  0.87255568  1
  N  N47  1  0.44973376  0.09103324  0.61601460  1
  N  N48  1  0.22292138  0.54256900  0.32513629  1
  N  N49  1  0.09145639  0.45513175  0.10357579  1
  N  N50  1  0.88341698  0.54425818  0.85605212  1
  N  N51  1  0.77680347  0.42705680  0.61838500  1
  N  N52  1  0.53399953  0.54961981  0.38018557  1
  N  N53  1  0.44959111  0.42629417  0.12139887  1
  N  N54  1  0.21671483  0.54550967  0.81565543  1
  N  N55  1  0.11286342  0.42575763  0.60243196  1
  N  N56  1  0.89824723  0.55813912  0.38702238  1
  N  N57  1  0.77506090  0.43024531  0.08440767  1
  N  N58  1  0.54864310  0.54213872  0.86545024  1
  N  N59  1  0.45198315  0.42216360  0.62135069  1
  N  N60  1  0.22456322  0.86528446  0.32546714  1
  N  N61  1  0.11504822  0.75962121  0.06894454  1
  N  N62  1  0.88202382  0.87555457  0.87313521  1
  N  N63  1  0.77501541  0.76654512  0.62410865  1
  N  N64  1  0.56080360  0.86705635  0.37290190  1
  N  N65  1  0.44949488  0.75954912  0.12057570  1
  N  N66  1  0.21742410  0.87173715  0.81937701  1
  N  N67  1  0.11373950  0.75948503  0.56852464  1
  N  N68  1  0.88533286  0.87461606  0.36969843  1
  N  N69  1  0.77848541  0.75868679  0.12064691  1
  N  N70  1  0.55218195  0.87606798  0.87293990  1
  N  N71  1  0.45157025  0.75909055  0.62170997  1
