# generated using pymatgen
data_GdAl17N18
_symmetry_space_group_name_H-M   'P 1'
_cell_length_a   9.51709153
_cell_length_b   9.51986396
_cell_length_c   10.12911225
_cell_angle_alpha   90.00880538
_cell_angle_beta   89.91345234
_cell_angle_gamma   59.99290464
_symmetry_Int_Tables_number   1
_chemical_formula_structural   GdAl17N18
_chemical_formula_sum   'Gd2 Al34 N36'
_cell_volume   794.70366182
_cell_formula_units_Z   2
loop_
 _symmetry_equiv_pos_site_id
 _symmetry_equiv_pos_as_xyz
  1  'x, y, z'
loop_
 _atom_site_type_symbol
 _atom_site_label
 _atom_site_symmetry_multiplicity
 _atom_site_fract_x
 _atom_site_fract_y
 _atom_site_fract_z
 _atom_site_occupancy
  Al  Al0  1  0.11315238  0.08704113  0.40529539  1
  Al  Al1  1  0.77624659  0.09393081  0.89535469  1
  Al  Al2  1  0.88758630  0.20436249  0.65475877  1
  Al  Al3  1  0.44717529  0.09310867  0.40506195  1
  Al  Al4  1  0.56016941  0.20371529  0.14543611  1
  Al  Al5  1  0.10964980  0.08914122  0.89083014  1
  Al  Al6  1  0.22217501  0.20556752  0.64644194  1
  Al  Al7  1  0.78005977  0.08878273  0.39449321  1
  Al  Al8  1  0.88890318  0.19566288  0.14065860  1
  Al  Al9  1  0.45098354  0.09116338  0.89105289  1
  Al  Al10  1  0.55678413  0.20679995  0.64632674  1
  Al  Al11  1  0.11321011  0.43322271  0.40528024  1
  Al  Al12  1  0.22041803  0.54427972  0.14623611  1
  Al  Al13  1  0.77745652  0.42794074  0.89758728  1
  Al  Al14  1  0.88760233  0.54137654  0.65476430  1
  Al  Al15  1  0.43829762  0.42999518  0.39532498  1
  Al  Al16  1  0.54728734  0.54306029  0.14071149  1
  Al  Al17  1  0.10968598  0.43451313  0.89079485  1
  Al  Al18  1  0.22367981  0.54045096  0.64665255  1
  Al  Al19  1  0.88895940  0.54884694  0.14057960  1
  Al  Al20  1  0.44315846  0.42691827  0.89684367  1
  Al  Al21  1  0.55299980  0.54015973  0.65471957  1
  Al  Al22  1  0.11161203  0.76090513  0.39407323  1
  Al  Al23  1  0.22038994  0.86872016  0.14623833  1
  Al  Al24  1  0.77624987  0.76316309  0.89534133  1
  Al  Al25  1  0.88971127  0.87180045  0.64006075  1
  Al  Al26  1  0.43825441  0.76515399  0.39531013  1
  Al  Al27  1  0.56016579  0.86950268  0.14540960  1
  Al  Al28  1  0.11234660  0.76048608  0.89520910  1
  Al  Al29  1  0.22366934  0.86920976  0.64665624  1
  Al  Al30  1  0.78010301  0.76461753  0.39441342  1
  Al  Al31  1  0.88880104  0.87231457  0.13899776  1
  Al  Al32  1  0.44314860  0.76325589  0.89682999  1
  Al  Al33  1  0.55680355  0.86971885  0.64629377  1
  Gd  Gd34  1  0.22002412  0.20669532  0.14500169  1
  Gd  Gd35  1  0.77656608  0.42854317  0.39127923  1
  N  N36  1  0.22092737  0.20624052  0.36777659  1
  N  N37  1  0.09907422  0.07653462  0.07462801  1
  N  N38  1  0.88667415  0.20513609  0.84149212  1
  N  N39  1  0.77787109  0.09606548  0.58597745  1
  N  N40  1  0.55513987  0.20577743  0.33792754  1
  N  N41  1  0.47319934  0.08008271  0.07748367  1
  N  N42  1  0.22231241  0.20549204  0.84198590  1
  N  N43  1  0.10879444  0.09295321  0.59494183  1
  N  N44  1  0.90625333  0.17413848  0.32753706  1
  N  N45  1  0.77528227  0.09383636  0.08395469  1
  N  N46  1  0.55623684  0.20744718  0.83440436  1
  N  N47  1  0.44790657  0.09269619  0.59352935  1
  N  N48  1  0.22170058  0.53808961  0.33735718  1
  N  N49  1  0.09913282  0.45774809  0.07457515  1
  N  N50  1  0.88668805  0.54151403  0.84149020  1
  N  N51  1  0.77712742  0.42809451  0.61257531  1
  N  N52  1  0.52254012  0.55544369  0.32604800  1
  N  N53  1  0.44234218  0.42548694  0.08590683  1
  N  N54  1  0.22460239  0.54040370  0.83408239  1
  N  N55  1  0.10880141  0.43156641  0.59493586  1
  N  N56  1  0.90638375  0.55309105  0.32742970  1
  N  N57  1  0.77868537  0.42736818  0.09453501  1
  N  N58  1  0.55290015  0.54021127  0.84434899  1
  N  N59  1  0.44558321  0.42834380  0.58662514  1
  N  N60  1  0.22164796  0.87367526  0.33735796  1
  N  N61  1  0.11237692  0.76049757  0.08625817  1
  N  N62  1  0.88958386  0.87187097  0.83688571  1
  N  N63  1  0.77789090  0.75934896  0.58591304  1
  N  N64  1  0.55515459  0.87247454  0.33790107  1
  N  N65  1  0.44231523  0.76555964  0.08589589  1
  N  N66  1  0.22458201  0.86832952  0.83409333  1
  N  N67  1  0.11282192  0.76024696  0.58479064  1
  N  N68  1  0.88979011  0.87186249  0.33811532  1
  N  N69  1  0.77528445  0.76428713  0.08393135  1
  N  N70  1  0.55624856  0.86961931  0.83437892  1
  N  N71  1  0.44557585  0.75938612  0.58661129  1
