# generated using pymatgen
data_GdAl17N18
_symmetry_space_group_name_H-M   'P 1'
_cell_length_a   9.51756290
_cell_length_b   9.52065468
_cell_length_c   10.12951536
_cell_angle_alpha   89.99087328
_cell_angle_beta   89.90342869
_cell_angle_gamma   59.99744756
_symmetry_Int_Tables_number   1
_chemical_formula_structural   GdAl17N18
_chemical_formula_sum   'Gd2 Al34 N36'
_cell_volume   794.87702648
_cell_formula_units_Z   2
loop_
 _symmetry_equiv_pos_site_id
 _symmetry_equiv_pos_as_xyz
  1  'x, y, z'
loop_
 _atom_site_type_symbol
 _atom_site_label
 _atom_site_symmetry_multiplicity
 _atom_site_fract_x
 _atom_site_fract_y
 _atom_site_fract_z
 _atom_site_occupancy
  Al  Al0  1  0.11096394  0.08463751  0.31801279  1
  Al  Al1  1  0.77613846  0.09297166  0.81201184  1
  Al  Al2  1  0.89022550  0.19880856  0.56785765  1
  Al  Al3  1  0.45258208  0.09036885  0.31797358  1
  Al  Al4  1  0.56161045  0.20343224  0.06337690  1
  Al  Al5  1  0.11226981  0.09202952  0.80391442  1
  Al  Al6  1  0.22241394  0.20542299  0.56109115  1
  Al  Al7  1  0.77945275  0.08917155  0.31242931  1
  Al  Al8  1  0.88672330  0.20021719  0.05340935  1
  Al  Al9  1  0.44686013  0.09318498  0.80397732  1
  Al  Al10  1  0.55671522  0.20642976  0.56184590  1
  Al  Al11  1  0.11088991  0.43778786  0.31809685  1
  Al  Al12  1  0.21982181  0.54462946  0.06434941  1
  Al  Al13  1  0.77769219  0.42776274  0.81225150  1
  Al  Al14  1  0.89017777  0.54422938  0.56789304  1
  Al  Al15  1  0.43976388  0.42964488  0.31326247  1
  Al  Al16  1  0.55269898  0.54030233  0.05363913  1
  Al  Al17  1  0.11224773  0.42895490  0.80390628  1
  Al  Al18  1  0.22367519  0.53931575  0.56348103  1
  Al  Al19  1  0.88665229  0.54646356  0.05342643  1
  Al  Al20  1  0.44311773  0.42649604  0.81237866  1
  Al  Al21  1  0.54888301  0.54217493  0.56763691  1
  Al  Al22  1  0.11106117  0.76113734  0.32089227  1
  Al  Al23  1  0.21987627  0.86893058  0.06426357  1
  Al  Al24  1  0.77612492  0.76414203  0.81201368  1
  Al  Al25  1  0.88739101  0.87292303  0.56361875  1
  Al  Al26  1  0.43976602  0.76388562  0.31323258  1
  Al  Al27  1  0.56155902  0.86832419  0.06335845  1
  Al  Al28  1  0.11014411  0.76153775  0.81965134  1
  Al  Al29  1  0.22368078  0.87026781  0.56346724  1
  Al  Al30  1  0.77941312  0.76470311  0.31243014  1
  Al  Al31  1  0.88812334  0.87261095  0.06465355  1
  Al  Al32  1  0.44313834  0.76359611  0.81234389  1
  Al  Al33  1  0.55670163  0.87011205  0.56183157  1
  Gd  Gd34  1  0.22331231  0.20515271  0.06739761  1
  Gd  Gd35  1  0.77985376  0.42671887  0.31371330  1
  N  N36  1  0.22118997  0.20608553  0.36416460  1
  N  N37  1  0.09361841  0.08046446  0.13117508  1
  N  N38  1  0.89107374  0.20177830  0.86376062  1
  N  N39  1  0.77523069  0.09299856  0.62460730  1
  N  N40  1  0.55756096  0.20789991  0.37279167  1
  N  N41  1  0.47732603  0.07799473  0.13263833  1
  N  N42  1  0.22274391  0.20525521  0.84612183  1
  N  N43  1  0.11317555  0.09189160  0.61721236  1
  N  N44  1  0.90081726  0.17560875  0.38406195  1
  N  N45  1  0.77818012  0.09539232  0.12134870  1
  N  N46  1  0.55428297  0.20499742  0.87208835  1
  N  N47  1  0.44696447  0.09312857  0.61434330  1
  N  N48  1  0.22470726  0.53936161  0.37482975  1
  N  N49  1  0.09346090  0.45945478  0.13129530  1
  N  N50  1  0.89106080  0.54040628  0.86376536  1
  N  N51  1  0.77755461  0.42781620  0.61670129  1
  N  N52  1  0.52666159  0.55332078  0.38120331  1
  N  N53  1  0.44475831  0.42760243  0.12081282  1
  N  N54  1  0.22209026  0.53702443  0.87278174  1
  N  N55  1  0.11315211  0.42817016  0.61721069  1
  N  N56  1  0.90073431  0.55692430  0.38411280  1
  N  N57  1  0.77893817  0.42718021  0.09094156  1
  N  N58  1  0.55195562  0.54063732  0.86517093  1
  N  N59  1  0.44368226  0.42583671  0.62432307  1
  N  N60  1  0.22471390  0.86926624  0.37480366  1
  N  N61  1  0.11002811  0.76169619  0.11981331  1
  N  N62  1  0.88677357  0.87323777  0.87388651  1
  N  N63  1  0.77520738  0.76500288  0.62461693  1
  N  N64  1  0.55752544  0.86787224  0.37278266  1
  N  N65  1  0.44478027  0.76091283  0.12078290  1
  N  N66  1  0.22211233  0.87410005  0.87271319  1
  N  N67  1  0.11027137  0.76147416  0.62132417  1
  N  N68  1  0.88727164  0.87301268  0.37250032  1
  N  N69  1  0.77811859  0.75979815  0.12134765  1
  N  N70  1  0.55427333  0.87396653  0.87207060  1
  N  N71  1  0.44369515  0.76367916  0.62429787  1
