# generated using pymatgen
data_GdAl17N18
_symmetry_space_group_name_H-M   'P 1'
_cell_length_a   9.48866089
_cell_length_b   9.52329016
_cell_length_c   10.42353366
_cell_angle_alpha   89.99999273
_cell_angle_beta   89.72175701
_cell_angle_gamma   59.87942473
_symmetry_Int_Tables_number   1
_chemical_formula_structural   GdAl17N18
_chemical_formula_sum   'Gd2 Al34 N36'
_cell_volume   814.70757346
_cell_formula_units_Z   2
loop_
 _symmetry_equiv_pos_site_id
 _symmetry_equiv_pos_as_xyz
  1  'x, y, z'
loop_
 _atom_site_type_symbol
 _atom_site_label
 _atom_site_symmetry_multiplicity
 _atom_site_fract_x
 _atom_site_fract_y
 _atom_site_fract_z
 _atom_site_occupancy
  Al  Al0  1  0.12167642  0.08278946  0.40570910  1
  Al  Al1  1  0.78251765  0.08819320  0.81533390  1
  Al  Al2  1  0.88565665  0.20068421  0.57795767  1
  Al  Al3  1  0.44735569  0.09298895  0.39624689  1
  Al  Al4  1  0.55551458  0.20687098  0.13807502  1
  Al  Al5  1  0.11476397  0.08786107  0.87929640  1
  Al  Al6  1  0.22445658  0.20443885  0.64340775  1
  Al  Al7  1  0.78633772  0.08575727  0.31974747  1
  Al  Al8  1  0.87744349  0.20416490  0.05146879  1
  Al  Al9  1  0.45224228  0.09054561  0.88659256  1
  Al  Al10  1  0.54964345  0.20756678  0.63960972  1
  Al  Al11  1  0.12167643  0.42886714  0.40570912  1
  Al  Al12  1  0.21858015  0.54438852  0.13819811  1
  Al  Al13  1  0.77673351  0.42830001  0.81505808  1
  Al  Al14  1  0.88565654  0.54699362  0.57795763  1
  Al  Al15  1  0.43942805  0.42622123  0.38888634  1
  Al  Al16  1  0.55296078  0.54018639  0.07841745  1
  Al  Al17  1  0.11476389  0.43070806  0.87929641  1
  Al  Al18  1  0.22185485  0.54237399  0.64148954  1
  Al  Al19  1  0.87744341  0.55172634  0.05146876  1
  Al  Al20  1  0.44126249  0.42467511  0.88395372  1
  Al  Al21  1  0.55130287  0.54101532  0.60712036  1
  Al  Al22  1  0.11951204  0.75691046  0.38672900  1
  Al  Al23  1  0.21858015  0.87036556  0.13819809  1
  Al  Al24  1  0.78251767  0.76262270  0.81533383  1
  Al  Al25  1  0.88369576  0.87481936  0.56472455  1
  Al  Al26  1  0.43942808  0.76768434  0.38888640  1
  Al  Al27  1  0.55551451  0.87094794  0.13807506  1
  Al  Al28  1  0.11753865  0.75789717  0.89178069  1
  Al  Al29  1  0.22185484  0.86910537  0.64148957  1
  Al  Al30  1  0.78633774  0.76123859  0.31974749  1
  Al  Al31  1  0.88218225  0.87557618  0.06993527  1
  Al  Al32  1  0.44126250  0.76739595  0.88395376  1
  Al  Al33  1  0.54964340  0.87612332  0.63960970  1
  Gd  Gd34  1  0.21862564  0.20735442  0.13962431  1
  Gd  Gd35  1  0.78748491  0.42292425  0.31744306  1
  N  N36  1  0.21758952  0.20787204  0.35747527  1
  N  N37  1  0.10349697  0.07596618  0.06249426  1
  N  N38  1  0.88100533  0.20759009  0.86696744  1
  N  N39  1  0.78248187  0.08684882  0.63249773  1
  N  N40  1  0.54826252  0.20760273  0.32645191  1
  N  N41  1  0.47674789  0.07829263  0.06718751  1
  N  N42  1  0.22400559  0.20466407  0.83202911  1
  N  N43  1  0.11896733  0.08906362  0.59193441  1
  N  N44  1  0.89617513  0.17696392  0.39704892  1
  N  N45  1  0.78581324  0.09263901  0.13293457  1
  N  N46  1  0.54880366  0.20901974  0.82430438  1
  N  N47  1  0.44776740  0.09278295  0.58024900  1
  N  N48  1  0.22066519  0.53672200  0.32498154  1
  N  N49  1  0.10349681  0.45387072  0.06249421  1
  N  N50  1  0.88100527  0.54473866  0.86696734  1
  N  N51  1  0.78040606  0.42646385  0.62686731  1
  N  N52  1  0.52983643  0.55174886  0.35355165  1
  N  N53  1  0.44150383  0.42353406  0.07223644  1
  N  N54  1  0.22160927  0.54337583  0.82408557  1
  N  N55  1  0.11896722  0.42530275  0.59193433  1
  N  N56  1  0.89617513  0.56019492  0.39704884  1
  N  N57  1  0.77943785  0.42694808  0.09781157  1
  N  N58  1  0.54994944  0.54169226  0.84911259  1
  N  N59  1  0.44257621  0.42401404  0.57763829  1
  N  N60  1  0.22066518  0.87594641  0.32498158  1
  N  N61  1  0.11715889  0.75808742  0.07855801  1
  N  N62  1  0.88223536  0.87554932  0.88421072  1
  N  N63  1  0.78248184  0.76400314  0.63249765  1
  N  N64  1  0.54826255  0.87746873  0.32645196  1
  N  N65  1  0.44150391  0.76829524  0.07223640  1
  N  N66  1  0.22160923  0.86834858  0.82408561  1
  N  N67  1  0.11905822  0.75713772  0.57403011  1
  N  N68  1  0.88486278  0.87423563  0.37951559  1
  N  N69  1  0.78581318  0.75488179  0.13293458  1
  N  N70  1  0.54880365  0.87551057  0.82430434  1
  N  N71  1  0.44257625  0.76674297  0.57763832  1
