# generated using pymatgen
data_GdAl17N18
_symmetry_space_group_name_H-M   'P 1'
_cell_length_a   9.49984922
_cell_length_b   9.55812449
_cell_length_c   10.45242851
_cell_angle_alpha   90.03420247
_cell_angle_beta   90.12824041
_cell_angle_gamma   59.78072699
_symmetry_Int_Tables_number   1
_chemical_formula_structural   GdAl17N18
_chemical_formula_sum   'Gd2 Al34 N36'
_cell_volume   820.11022306
_cell_formula_units_Z   2
loop_
 _symmetry_equiv_pos_site_id
 _symmetry_equiv_pos_as_xyz
  1  'x, y, z'
loop_
 _atom_site_type_symbol
 _atom_site_label
 _atom_site_symmetry_multiplicity
 _atom_site_fract_x
 _atom_site_fract_y
 _atom_site_fract_z
 _atom_site_occupancy
  Al  Al0  1  0.12006947  0.08355891  0.40587779  1
  Al  Al1  1  0.78034970  0.08986663  0.81524319  1
  Al  Al2  1  0.88530622  0.20275111  0.57729320  1
  Al  Al3  1  0.44074441  0.09605216  0.40414224  1
  Al  Al4  1  0.56631375  0.20463574  0.06281128  1
  Al  Al5  1  0.11505518  0.08623319  0.88191398  1
  Al  Al6  1  0.22423792  0.20423121  0.64640112  1
  Al  Al7  1  0.77687141  0.09063943  0.32056071  1
  Al  Al8  1  0.87870243  0.20512956  0.05268476  1
  Al  Al9  1  0.44721039  0.09141601  0.88209693  1
  Al  Al10  1  0.56207197  0.20219054  0.58274487  1
  Al  Al11  1  0.12038167  0.42934033  0.40541532  1
  Al  Al12  1  0.22318180  0.54305252  0.13855471  1
  Al  Al13  1  0.77749581  0.42762603  0.81411768  1
  Al  Al14  1  0.88639778  0.54463037  0.57771568  1
  Al  Al15  1  0.43279032  0.43194658  0.39859432  1
  Al  Al16  1  0.55471629  0.54649326  0.05624074  1
  Al  Al17  1  0.11450322  0.43122961  0.88176040  1
  Al  Al18  1  0.22043381  0.54251186  0.64414288  1
  Al  Al19  1  0.88006378  0.55003215  0.05337862  1
  Al  Al20  1  0.43815956  0.43204748  0.87896076  1
  Al  Al21  1  0.55118429  0.54578733  0.57679438  1
  Al  Al22  1  0.11656844  0.75863111  0.38690589  1
  Al  Al23  1  0.21445076  0.87178776  0.13938601  1
  Al  Al24  1  0.77982340  0.76302153  0.81599448  1
  Al  Al25  1  0.88397511  0.87380074  0.56473486  1
  Al  Al26  1  0.44339399  0.76533304  0.32572542  1
  Al  Al27  1  0.56342031  0.85985291  0.06418361  1
  Al  Al28  1  0.11552471  0.75944828  0.89458251  1
  Al  Al29  1  0.21435884  0.87230348  0.64239374  1
  Al  Al30  1  0.77813880  0.76494053  0.32016784  1
  Al  Al31  1  0.88158718  0.87545620  0.07222166  1
  Al  Al32  1  0.44962114  0.75851932  0.81557077  1
  Al  Al33  1  0.56003388  0.86406081  0.57636928  1
  Gd  Gd34  1  0.21949966  0.20717859  0.14190702  1
  Gd  Gd35  1  0.77813270  0.42692780  0.31659304  1
  N  N36  1  0.21848975  0.20719508  0.35880540  1
  N  N37  1  0.10455468  0.07481234  0.06369636  1
  N  N38  1  0.88212928  0.20735896  0.86729262  1
  N  N39  1  0.78263078  0.08717139  0.63376819  1
  N  N40  1  0.55966567  0.20403964  0.38615327  1
  N  N41  1  0.46797316  0.08196747  0.06991108  1
  N  N42  1  0.22204241  0.20504883  0.83264753  1
  N  N43  1  0.11831413  0.08968456  0.59069327  1
  N  N44  1  0.89378803  0.18075288  0.39478454  1
  N  N45  1  0.77840710  0.09724040  0.13290075  1
  N  N46  1  0.56120913  0.20540964  0.86863715  1
  N  N47  1  0.44497214  0.09208024  0.59333347  1
  N  N48  1  0.22176358  0.53696963  0.32631322  1
  N  N49  1  0.10536783  0.45444779  0.06430881  1
  N  N50  1  0.88285792  0.54327766  0.86720327  1
  N  N51  1  0.77795971  0.42753727  0.62707744  1
  N  N52  1  0.52779045  0.55993690  0.39415259  1
  N  N53  1  0.44003135  0.43238610  0.07302069  1
  N  N54  1  0.21844127  0.54564410  0.82542423  1
  N  N55  1  0.11875894  0.42492377  0.59130801  1
  N  N56  1  0.89498665  0.55801958  0.39431687  1
  N  N57  1  0.78110858  0.42679581  0.09915938  1
  N  N58  1  0.55535420  0.54290505  0.87032359  1
  N  N59  1  0.43942537  0.42859348  0.59073389  1
  N  N60  1  0.21363860  0.87917428  0.32614644  1
  N  N61  1  0.11543970  0.75847322  0.08088271  1
  N  N62  1  0.88157687  0.87561417  0.88494226  1
  N  N63  1  0.78029572  0.76387477  0.63356709  1
  N  N64  1  0.55764738  0.86728526  0.38669795  1
  N  N65  1  0.45065318  0.75796900  0.13019730  1
  N  N66  1  0.21633748  0.86988530  0.82593087  1
  N  N67  1  0.11762032  0.75682705  0.57355122  1
  N  N68  1  0.88268323  0.87501593  0.37794404  1
  N  N69  1  0.77821473  0.75852485  0.13288034  1
  N  N70  1  0.56044037  0.86174469  0.87554675  1
  N  N71  1  0.44788064  0.76106124  0.63275620  1
