# generated using pymatgen
data_GdAl17N18
_symmetry_space_group_name_H-M   'P 1'
_cell_length_a   9.53021532
_cell_length_b   9.53214350
_cell_length_c   10.16033963
_cell_angle_alpha   89.98218025
_cell_angle_beta   89.88966556
_cell_angle_gamma   60.00251512
_symmetry_Int_Tables_number   1
_chemical_formula_structural   GdAl17N18
_chemical_formula_sum   'Gd2 Al34 N36'
_cell_volume   799.35964531
_cell_formula_units_Z   2
loop_
 _symmetry_equiv_pos_site_id
 _symmetry_equiv_pos_as_xyz
  1  'x, y, z'
loop_
 _atom_site_type_symbol
 _atom_site_label
 _atom_site_symmetry_multiplicity
 _atom_site_fract_x
 _atom_site_fract_y
 _atom_site_fract_z
 _atom_site_occupancy
  Al  Al0  1  0.11091601  0.08521968  0.31714050  1
  Al  Al1  1  0.77554526  0.09358856  0.81115701  1
  Al  Al2  1  0.89032528  0.19874294  0.56739475  1
  Al  Al3  1  0.45252934  0.09040858  0.31762931  1
  Al  Al4  1  0.56145618  0.20356673  0.06282834  1
  Al  Al5  1  0.11229164  0.09237948  0.80315876  1
  Al  Al6  1  0.22243028  0.20536827  0.56060309  1
  Al  Al7  1  0.77918463  0.08969199  0.31165676  1
  Al  Al8  1  0.88670094  0.20026678  0.05297898  1
  Al  Al9  1  0.44675365  0.09320680  0.80386327  1
  Al  Al10  1  0.55674426  0.20635489  0.56129531  1
  Al  Al11  1  0.11073447  0.43732586  0.31745097  1
  Al  Al12  1  0.22214854  0.54034743  0.06556323  1
  Al  Al13  1  0.77773831  0.42768517  0.81203006  1
  Al  Al14  1  0.89019505  0.54415549  0.56750228  1
  Al  Al15  1  0.44076272  0.42900107  0.31267019  1
  Al  Al16  1  0.55292940  0.54019981  0.05317042  1
  Al  Al17  1  0.11225833  0.42852550  0.80313443  1
  Al  Al18  1  0.22593631  0.53486619  0.56408368  1
  Al  Al19  1  0.88653765  0.54658356  0.05303062  1
  Al  Al20  1  0.44351122  0.42603417  0.81162178  1
  Al  Al21  1  0.54909841  0.54204893  0.56725920  1
  Al  Al22  1  0.11090481  0.76122499  0.36860149  1
  Al  Al23  1  0.22229354  0.87104288  0.06507720  1
  Al  Al24  1  0.77551013  0.76407046  0.81116516  1
  Al  Al25  1  0.88295486  0.87510230  0.56436630  1
  Al  Al26  1  0.44070492  0.76356639  0.31250736  1
  Al  Al27  1  0.56134596  0.86847556  0.06277271  1
  Al  Al28  1  0.10991267  0.76157554  0.86573348  1
  Al  Al29  1  0.22595318  0.87242771  0.56405404  1
  Al  Al30  1  0.77908917  0.76448531  0.31165669  1
  Al  Al31  1  0.88329688  0.87506721  0.06487021  1
  Al  Al32  1  0.44359212  0.76355618  0.81153730  1
  Al  Al33  1  0.55670413  0.87010892  0.56124067  1
  Gd  Gd34  1  0.22310389  0.20550814  0.06656320  1
  Gd  Gd35  1  0.78009498  0.42660094  0.31342714  1
  N  N36  1  0.22115409  0.20610442  0.36414073  1
  N  N37  1  0.09340274  0.08118381  0.13120831  1
  N  N38  1  0.89112979  0.20160208  0.86367381  1
  N  N39  1  0.77459593  0.09397652  0.62443647  1
  N  N40  1  0.55776516  0.20771947  0.37262380  1
  N  N41  1  0.47700850  0.07819948  0.13230758  1
  N  N42  1  0.22265728  0.20525862  0.84591281  1
  N  N43  1  0.11284986  0.09279431  0.61713772  1
  N  N44  1  0.90107124  0.17532717  0.38387142  1
  N  N45  1  0.77752101  0.09641787  0.12131655  1
  N  N46  1  0.55425750  0.20507947  0.87197397  1
  N  N47  1  0.44699958  0.09307498  0.61425118  1
  N  N48  1  0.22759149  0.53405728  0.37347040  1
  N  N49  1  0.09298380  0.45933367  0.13161382  1
  N  N50  1  0.89110909  0.54045276  0.86368362  1
  N  N51  1  0.77764172  0.42770809  0.61668251  1
  N  N52  1  0.52684750  0.55325223  0.38110178  1
  N  N53  1  0.44563553  0.42721074  0.12099527  1
  N  N54  1  0.22462279  0.53169329  0.87132978  1
  N  N55  1  0.11281128  0.42752779  0.61711177  1
  N  N56  1  0.90084729  0.55701432  0.38403096  1
  N  N57  1  0.77898804  0.42717464  0.09094113  1
  N  N58  1  0.55182931  0.54065230  0.86506917  1
  N  N59  1  0.44466000  0.42522018  0.62419879  1
  N  N60  1  0.22759299  0.87171771  0.37341438  1
  N  N61  1  0.10909350  0.76228041  0.08295927  1
  N  N62  1  0.88111777  0.87602390  0.87208225  1
  N  N63  1  0.77452897  0.76461328  0.62446380  1
  N  N64  1  0.55766301  0.86786944  0.37256814  1
  N  N65  1  0.44564322  0.76048258  0.12082782  1
  N  N66  1  0.22467398  0.87673490  0.87105340  1
  N  N67  1  0.10997712  0.76160693  0.58793925  1
  N  N68  1  0.88265003  0.87530920  0.37090940  1
  N  N69  1  0.77737963  0.75956880  0.12130846  1
  N  N70  1  0.55423466  0.87386216  0.87193335  1
  N  N71  1  0.44468872  0.76324305  0.62415360  1
