# generated using pymatgen
data_GdAl17N18
_symmetry_space_group_name_H-M   'P 1'
_cell_length_a   9.48561992
_cell_length_b   9.50871168
_cell_length_c   10.40761234
_cell_angle_alpha   90.00000345
_cell_angle_beta   89.52623032
_cell_angle_gamma   59.91937792
_symmetry_Int_Tables_number   1
_chemical_formula_structural   GdAl17N18
_chemical_formula_sum   'Gd2 Al34 N36'
_cell_volume   812.26158247
_cell_formula_units_Z   2
loop_
 _symmetry_equiv_pos_site_id
 _symmetry_equiv_pos_as_xyz
  1  'x, y, z'
loop_
 _atom_site_type_symbol
 _atom_site_label
 _atom_site_symmetry_multiplicity
 _atom_site_fract_x
 _atom_site_fract_y
 _atom_site_fract_z
 _atom_site_occupancy
  Al  Al0  1  0.12375594  0.08069215  0.40448318  1
  Al  Al1  1  0.78122302  0.08918771  0.81437195  1
  Al  Al2  1  0.88794174  0.19857848  0.57723014  1
  Al  Al3  1  0.44737111  0.09300017  0.39428599  1
  Al  Al4  1  0.55490726  0.20737441  0.13503354  1
  Al  Al5  1  0.11489777  0.08713469  0.87816341  1
  Al  Al6  1  0.22555468  0.20390842  0.64221301  1
  Al  Al7  1  0.78576237  0.08567299  0.31712524  1
  Al  Al8  1  0.87460211  0.20809818  0.05198778  1
  Al  Al9  1  0.45151639  0.09092759  0.88360543  1
  Al  Al10  1  0.55004422  0.20935383  0.63649190  1
  Al  Al11  1  0.12375597  0.42892355  0.40448318  1
  Al  Al12  1  0.21673527  0.54499605  0.13563126  1
  Al  Al13  1  0.78019585  0.42658790  0.81195184  1
  Al  Al14  1  0.88794178  0.54685126  0.57723009  1
  Al  Al15  1  0.44009119  0.42886920  0.38381515  1
  Al  Al16  1  0.54181297  0.54577929  0.12934763  1
  Al  Al17  1  0.11489783  0.43133916  0.87816337  1
  Al  Al18  1  0.22431118  0.54209793  0.63902551  1
  Al  Al19  1  0.87460219  0.55067118  0.05198779  1
  Al  Al20  1  0.44442651  0.42788706  0.88484456  1
  Al  Al21  1  0.54885946  0.54225600  0.63361620  1
  Al  Al22  1  0.11741635  0.75797767  0.38458227  1
  Al  Al23  1  0.21673521  0.87164026  0.13563127  1
  Al  Al24  1  0.78122299  0.76296089  0.81437196  1
  Al  Al25  1  0.88346931  0.87495106  0.56357977  1
  Al  Al26  1  0.44009117  0.76441118  0.38381515  1
  Al  Al27  1  0.55490731  0.87108976  0.13503355  1
  Al  Al28  1  0.11727168  0.75804999  0.88931020  1
  Al  Al29  1  0.22431118  0.86696240  0.63902550  1
  Al  Al30  1  0.78576241  0.76193627  0.31712521  1
  Al  Al31  1  0.88147639  0.87594754  0.06754744  1
  Al  Al32  1  0.44442648  0.76105802  0.88484457  1
  Al  Al33  1  0.55004423  0.87397336  0.63649191  1
  Gd  Gd34  1  0.21807521  0.20764809  0.13761954  1
  Gd  Gd35  1  0.79310051  0.42013568  0.32510152  1
  N  N36  1  0.21731113  0.20803015  0.35588483  1
  N  N37  1  0.10164666  0.07730819  0.06123972  1
  N  N38  1  0.88020184  0.20858453  0.86660768  1
  N  N39  1  0.78278614  0.08692485  0.63148791  1
  N  N40  1  0.54775275  0.20857987  0.32417788  1
  N  N41  1  0.47617620  0.07859775  0.06445624  1
  N  N42  1  0.22333840  0.20501652  0.83057268  1
  N  N43  1  0.12137904  0.08723632  0.59056435  1
  N  N44  1  0.89868008  0.17272142  0.39603680  1
  N  N45  1  0.78491944  0.09271167  0.13068121  1
  N  N46  1  0.54749281  0.21149771  0.82237734  1
  N  N47  1  0.44894308  0.09221427  0.57852259  1
  N  N48  1  0.22058158  0.53759867  0.32302605  1
  N  N49  1  0.10164679  0.45441686  0.06123970  1
  N  N50  1  0.88020190  0.54458498  0.86660770  1
  N  N51  1  0.78382470  0.42477351  0.62154982  1
  N  N52  1  0.52345138  0.55495993  0.31553974  1
  N  N53  1  0.44208355  0.42635539  0.07131980  1
  N  N54  1  0.22356182  0.54280571  0.82251278  1
  N  N55  1  0.12137911  0.42475635  0.59056438  1
  N  N56  1  0.89868019  0.56196984  0.39603682  1
  N  N57  1  0.77633381  0.42851896  0.10471602  1
  N  N58  1  0.54749745  0.54293697  0.82128104  1
  N  N59  1  0.44644649  0.42692581  0.57102692  1
  N  N60  1  0.22058154  0.87519125  0.32302605  1
  N  N61  1  0.11580864  0.75878155  0.07648789  1
  N  N62  1  0.88173830  0.87581655  0.88198661  1
  N  N63  1  0.78278612  0.76366075  0.63148793  1
  N  N64  1  0.54775279  0.87703867  0.32417788  1
  N  N65  1  0.44208350  0.76493278  0.07131982  1
  N  N66  1  0.22356178  0.86700395  0.82251278  1
  N  N67  1  0.11876847  0.75730162  0.57208090  1
  N  N68  1  0.88352302  0.87492422  0.37796385  1
  N  N69  1  0.78491949  0.75574057  0.13068121  1
  N  N70  1  0.54749279  0.87438083  0.82237735  1
  N  N71  1  0.44644647  0.75999932  0.57102691  1
