# generated using pymatgen
data_GdAl17N18
_symmetry_space_group_name_H-M   'P 1'
_cell_length_a   9.53550449
_cell_length_b   9.52991461
_cell_length_c   10.29006656
_cell_angle_alpha   90.35003599
_cell_angle_beta   89.64000785
_cell_angle_gamma   60.10040925
_symmetry_Int_Tables_number   1
_chemical_formula_structural   GdAl17N18
_chemical_formula_sum   'Gd2 Al34 N36'
_cell_volume   810.56299980
_cell_formula_units_Z   2
loop_
 _symmetry_equiv_pos_site_id
 _symmetry_equiv_pos_as_xyz
  1  'x, y, z'
loop_
 _atom_site_type_symbol
 _atom_site_label
 _atom_site_symmetry_multiplicity
 _atom_site_fract_x
 _atom_site_fract_y
 _atom_site_fract_z
 _atom_site_occupancy
  Al  Al0  1  0.11078202  0.08613315  0.32860502  1
  Al  Al1  1  0.77583391  0.09160474  0.80917758  1
  Al  Al2  1  0.88870952  0.19953775  0.56747045  1
  Al  Al3  1  0.45881124  0.08554418  0.31641284  1
  Al  Al4  1  0.56136256  0.20443668  0.06128833  1
  Al  Al5  1  0.10665307  0.10266335  0.80391692  1
  Al  Al6  1  0.22973278  0.19755576  0.56678878  1
  Al  Al7  1  0.78245068  0.08625313  0.30948441  1
  Al  Al8  1  0.88381254  0.20282377  0.04770363  1
  Al  Al9  1  0.44417485  0.09549306  0.80718694  1
  Al  Al10  1  0.55770608  0.20534239  0.56062064  1
  Al  Al11  1  0.12064305  0.43105836  0.38724052  1
  Al  Al12  1  0.21247333  0.55012414  0.12782667  1
  Al  Al13  1  0.77340126  0.43016223  0.80652513  1
  Al  Al14  1  0.88554923  0.54434579  0.56792853  1
  Al  Al15  1  0.44608205  0.42426841  0.30966255  1
  Al  Al16  1  0.54981852  0.54203811  0.05059205  1
  Al  Al17  1  0.10957106  0.43876616  0.86728922  1
  Al  Al18  1  0.21862433  0.54222756  0.63126670  1
  Al  Al19  1  0.87394454  0.55336303  0.04263952  1
  Al  Al20  1  0.44873017  0.42467516  0.80947736  1
  Al  Al21  1  0.55035158  0.53983349  0.56212018  1
  Al  Al22  1  0.11836953  0.75456707  0.38113280  1
  Al  Al23  1  0.21540054  0.86793972  0.13523411  1
  Al  Al24  1  0.77449797  0.76775564  0.80700900  1
  Al  Al25  1  0.88184857  0.87546592  0.55787058  1
  Al  Al26  1  0.44963941  0.75766197  0.31313012  1
  Al  Al27  1  0.56122694  0.86875932  0.06170587  1
  Al  Al28  1  0.11598435  0.76248650  0.88118748  1
  Al  Al29  1  0.22099101  0.86642011  0.62701243  1
  Al  Al30  1  0.78272537  0.76120135  0.30898638  1
  Al  Al31  1  0.88159399  0.87636116  0.06117618  1
  Al  Al32  1  0.44788061  0.76193813  0.81017618  1
  Al  Al33  1  0.55811256  0.86887432  0.55997703  1
  Gd  Gd34  1  0.22341205  0.20425681  0.08035220  1
  Gd  Gd35  1  0.78490815  0.42015022  0.30598883  1
  N  N36  1  0.22925041  0.19746044  0.36528453  1
  N  N37  1  0.08261687  0.09073917  0.13175306  1
  N  N38  1  0.88619886  0.20526985  0.86026303  1
  N  N39  1  0.77599582  0.09126832  0.62396714  1
  N  N40  1  0.55915417  0.20588855  0.37326032  1
  N  N41  1  0.48147063  0.07665638  0.13331668  1
  N  N42  1  0.22083190  0.20828258  0.85244659  1
  N  N43  1  0.11091845  0.09618427  0.61458040  1
  N  N44  1  0.90030663  0.17393428  0.38713082  1
  N  N45  1  0.77732069  0.09725950  0.12020177  1
  N  N46  1  0.55333875  0.20655862  0.87203391  1
  N  N47  1  0.44995583  0.09066763  0.61851346  1
  N  N48  1  0.21730482  0.53974982  0.31540577  1
  N  N49  1  0.09493217  0.46574339  0.05555961  1
  N  N50  1  0.87853735  0.54716224  0.85394825  1
  N  N51  1  0.77632751  0.42709634  0.61533962  1
  N  N52  1  0.53038863  0.54880593  0.37888977  1
  N  N53  1  0.44902895  0.42596131  0.11864962  1
  N  N54  1  0.21741028  0.54782301  0.81622571  1
  N  N55  1  0.11849108  0.42608324  0.57646431  1
  N  N56  1  0.89680491  0.55533903  0.38120822  1
  N  N57  1  0.77580271  0.42974285  0.08656991  1
  N  N58  1  0.54972432  0.54257271  0.86491193  1
  N  N59  1  0.45089247  0.42212336  0.62176367  1
  N  N60  1  0.22517541  0.86232555  0.32553986  1
  N  N61  1  0.11433534  0.76247821  0.06820391  1
  N  N62  1  0.88198932  0.87616610  0.87227261  1
  N  N63  1  0.77605530  0.76552914  0.62199675  1
  N  N64  1  0.56073705  0.86587846  0.37323992  1
  N  N65  1  0.44952202  0.75953399  0.12009322  1
  N  N66  1  0.21759595  0.87372153  0.81864182  1
  N  N67  1  0.11520895  0.75655733  0.56746751  1
  N  N68  1  0.88549459  0.87265239  0.36830138  1
  N  N69  1  0.77790121  0.75993831  0.12092314  1
  N  N70  1  0.55292691  0.87601700  0.87217324  1
  N  N71  1  0.45165259  0.75846828  0.62111362  1
