# generated using pymatgen
data_GdAl17N18
_symmetry_space_group_name_H-M   'P 1'
_cell_length_a   9.53386640
_cell_length_b   9.51486287
_cell_length_c   10.30908510
_cell_angle_alpha   89.79093020
_cell_angle_beta   89.42236905
_cell_angle_gamma   60.06453405
_symmetry_Int_Tables_number   1
_chemical_formula_structural   GdAl17N18
_chemical_formula_sum   'Gd2 Al34 N36'
_cell_volume   810.36705736
_cell_formula_units_Z   2
loop_
 _symmetry_equiv_pos_site_id
 _symmetry_equiv_pos_as_xyz
  1  'x, y, z'
loop_
 _atom_site_type_symbol
 _atom_site_label
 _atom_site_symmetry_multiplicity
 _atom_site_fract_x
 _atom_site_fract_y
 _atom_site_fract_z
 _atom_site_occupancy
  Al  Al0  1  0.11577296  0.08722242  0.40865388  1
  Al  Al1  1  0.77877020  0.08730278  0.83186042  1
  Al  Al2  1  0.89563006  0.20534090  0.65807376  1
  Al  Al3  1  0.45035747  0.09196581  0.40753673  1
  Al  Al4  1  0.55110266  0.20827448  0.14477842  1
  Al  Al5  1  0.11143156  0.08874795  0.89355636  1
  Al  Al6  1  0.22705379  0.20202427  0.65019049  1
  Al  Al7  1  0.78419826  0.08256724  0.32286344  1
  Al  Al8  1  0.89125942  0.19885921  0.13730700  1
  Al  Al9  1  0.44820706  0.09160779  0.89567149  1
  Al  Al10  1  0.55240013  0.20945321  0.64806324  1
  Al  Al11  1  0.12062933  0.42916052  0.41578787  1
  Al  Al12  1  0.21692903  0.54601701  0.14889375  1
  Al  Al13  1  0.77130241  0.42440747  0.89279459  1
  Al  Al14  1  0.89214708  0.54331535  0.60921554  1
  Al  Al15  1  0.43726699  0.43087877  0.39555582  1
  Al  Al16  1  0.54454095  0.54377487  0.14223085  1
  Al  Al17  1  0.11515642  0.42990961  0.88909992  1
  Al  Al18  1  0.22628542  0.54212415  0.65071579  1
  Al  Al19  1  0.87932836  0.55178356  0.07087369  1
  Al  Al20  1  0.44147572  0.42736130  0.89956112  1
  Al  Al21  1  0.55378320  0.54030356  0.65560922  1
  Al  Al22  1  0.11774472  0.75785505  0.39695598  1
  Al  Al23  1  0.21861243  0.86969365  0.14885509  1
  Al  Al24  1  0.77986894  0.76297047  0.82924809  1
  Al  Al25  1  0.88366860  0.87681977  0.57672524  1
  Al  Al26  1  0.43862155  0.76632656  0.39609339  1
  Al  Al27  1  0.55269628  0.87257517  0.14718032  1
  Al  Al28  1  0.11854538  0.75770122  0.89994212  1
  Al  Al29  1  0.22378793  0.86787989  0.64862125  1
  Al  Al30  1  0.78706746  0.76019190  0.32770506  1
  Al  Al31  1  0.88190125  0.87502744  0.07641808  1
  Al  Al32  1  0.44190819  0.76345259  0.89869185  1
  Al  Al33  1  0.55163273  0.87272535  0.64927324  1
  Gd  Gd34  1  0.21515488  0.20987632  0.15388366  1
  Gd  Gd35  1  0.77160307  0.42548075  0.39335988  1
  N  N36  1  0.22436089  0.20595735  0.37289683  1
  N  N37  1  0.10101783  0.07687715  0.07384923  1
  N  N38  1  0.89102079  0.20427681  0.84411750  1
  N  N39  1  0.78244048  0.09007858  0.63950538  1
  N  N40  1  0.55037033  0.20959606  0.33807375  1
  N  N41  1  0.46828395  0.08162997  0.07844561  1
  N  N42  1  0.22322081  0.20352991  0.84122828  1
  N  N43  1  0.11287552  0.09124111  0.59569941  1
  N  N44  1  0.91646047  0.17580592  0.32480597  1
  N  N45  1  0.77558463  0.08891989  0.13327640  1
  N  N46  1  0.54819599  0.21074325  0.83686747  1
  N  N47  1  0.45090858  0.09127780  0.59306744  1
  N  N48  1  0.22025293  0.53779947  0.33725357  1
  N  N49  1  0.10270075  0.45509110  0.07412711  1
  N  N50  1  0.88270266  0.54282709  0.87605851  1
  N  N51  1  0.77937538  0.42734320  0.61651733  1
  N  N52  1  0.51922873  0.55819306  0.32440330  1
  N  N53  1  0.43924746  0.42764359  0.08571640  1
  N  N54  1  0.22455859  0.54193731  0.83521990  1
  N  N55  1  0.12124197  0.42544955  0.60442195  1
  N  N56  1  0.90159762  0.55620023  0.39629606  1
  N  N57  1  0.77225624  0.42607987  0.08970707  1
  N  N58  1  0.54950917  0.54078003  0.84225453  1
  N  N59  1  0.44784001  0.42867858  0.58553598  1
  N  N60  1  0.22198657  0.87445062  0.33790108  1
  N  N61  1  0.11481807  0.75984272  0.08914192  1
  N  N62  1  0.88527711  0.87235796  0.89079468  1
  N  N63  1  0.78279440  0.76442445  0.64381136  1
  N  N64  1  0.55016630  0.87611108  0.33785920  1
  N  N65  1  0.44126053  0.76518897  0.08512538  1
  N  N66  1  0.22384288  0.86844256  0.83411185  1
  N  N67  1  0.11794169  0.75769115  0.58555008  1
  N  N68  1  0.88484920  0.87557531  0.38985266  1
  N  N69  1  0.78132756  0.75943285  0.13924403  1
  N  N70  1  0.54831237  0.87377070  0.83691117  1
  N  N71  1  0.44725292  0.75882373  0.58618524  1
