# generated using pymatgen
data_GdAl17N18
_symmetry_space_group_name_H-M   'P 1'
_cell_length_a   9.47055444
_cell_length_b   9.51183733
_cell_length_c   10.49924348
_cell_angle_alpha   89.97586353
_cell_angle_beta   89.93181528
_cell_angle_gamma   59.84764058
_symmetry_Int_Tables_number   1
_chemical_formula_structural   GdAl17N18
_chemical_formula_sum   'Gd2 Al34 N36'
_cell_volume   817.82301990
_cell_formula_units_Z   2
loop_
 _symmetry_equiv_pos_site_id
 _symmetry_equiv_pos_as_xyz
  1  'x, y, z'
loop_
 _atom_site_type_symbol
 _atom_site_label
 _atom_site_symmetry_multiplicity
 _atom_site_fract_x
 _atom_site_fract_y
 _atom_site_fract_z
 _atom_site_occupancy
  Al  Al0  1  0.12065351  0.08411754  0.40645473  1
  Al  Al1  1  0.78378829  0.08782894  0.81512410  1
  Al  Al2  1  0.88385942  0.20244803  0.57755512  1
  Al  Al3  1  0.44827185  0.09271512  0.39759362  1
  Al  Al4  1  0.55655111  0.20679431  0.13790671  1
  Al  Al5  1  0.11453276  0.08867254  0.87967526  1
  Al  Al6  1  0.22372994  0.20482085  0.64323695  1
  Al  Al7  1  0.78739047  0.08539996  0.31930698  1
  Al  Al8  1  0.87886813  0.20379441  0.05138013  1
  Al  Al9  1  0.45255765  0.09059186  0.88669037  1
  Al  Al10  1  0.54929569  0.20760844  0.64123916  1
  Al  Al11  1  0.12029695  0.42908282  0.40635910  1
  Al  Al12  1  0.22063225  0.54341999  0.13784572  1
  Al  Al13  1  0.77226044  0.43036789  0.81233246  1
  Al  Al14  1  0.88355909  0.54710628  0.57745242  1
  Al  Al15  1  0.43617695  0.42292714  0.39110178  1
  Al  Al16  1  0.55918434  0.53715081  0.05604576  1
  Al  Al17  1  0.11451923  0.42980926  0.87968900  1
  Al  Al18  1  0.22168855  0.54183920  0.64227390  1
  Al  Al19  1  0.87897476  0.55045994  0.05132868  1
  Al  Al20  1  0.44012872  0.42301778  0.88498271  1
  Al  Al21  1  0.55239335  0.54030297  0.57023774  1
  Al  Al22  1  0.11959798  0.75694133  0.38786196  1
  Al  Al23  1  0.22084272  0.86906436  0.13773604  1
  Al  Al24  1  0.78371359  0.76155635  0.81528378  1
  Al  Al25  1  0.88346140  0.87478239  0.56497818  1
  Al  Al26  1  0.43636259  0.77455787  0.39134474  1
  Al  Al27  1  0.55663421  0.87035531  0.13630735  1
  Al  Al28  1  0.11800764  0.75743420  0.89245273  1
  Al  Al29  1  0.22154109  0.86955828  0.64224307  1
  Al  Al30  1  0.78659901  0.76122399  0.31899471  1
  Al  Al31  1  0.88316535  0.87523104  0.06969058  1
  Al  Al32  1  0.43998223  0.76976086  0.88420873  1
  Al  Al33  1  0.54922528  0.87653990  0.64137273  1
  Gd  Gd34  1  0.22050564  0.20619234  0.14129128  1
  Gd  Gd35  1  0.78225824  0.42564923  0.31487444  1
  N  N36  1  0.21800403  0.20791042  0.35825363  1
  N  N37  1  0.10555648  0.07539371  0.06177369  1
  N  N38  1  0.88035879  0.20878111  0.86748738  1
  N  N39  1  0.78289197  0.08668419  0.63307029  1
  N  N40  1  0.54880993  0.20724440  0.32562745  1
  N  N41  1  0.47768076  0.07839887  0.06619714  1
  N  N42  1  0.22423554  0.20444885  0.83076904  1
  N  N43  1  0.11730939  0.09010600  0.59137745  1
  N  N44  1  0.89427038  0.18034236  0.39677487  1
  N  N45  1  0.78766588  0.09189327  0.13382011  1
  N  N46  1  0.54967254  0.20845503  0.82447474  1
  N  N47  1  0.44781015  0.09282018  0.58062275  1
  N  N48  1  0.22002652  0.53722999  0.32450738  1
  N  N49  1  0.10565815  0.45207922  0.06187190  1
  N  N50  1  0.88036325  0.54386507  0.86748853  1
  N  N51  1  0.77480016  0.42914648  0.62684104  1
  N  N52  1  0.53192747  0.55087721  0.38450964  1
  N  N53  1  0.44293437  0.42292230  0.07409692  1
  N  N54  1  0.22110824  0.54313437  0.82409384  1
  N  N55  1  0.11700550  0.42603340  0.59132221  1
  N  N56  1  0.89386162  0.55927451  0.39663148  1
  N  N57  1  0.78167356  0.42579386  0.09958114  1
  N  N58  1  0.55296142  0.53992985  0.86960921  1
  N  N59  1  0.43998142  0.42147368  0.57872244  1
  N  N60  1  0.22021294  0.87622820  0.32455859  1
  N  N61  1  0.11852692  0.75737594  0.07806867  1
  N  N62  1  0.88246324  0.87533995  0.88494266  1
  N  N63  1  0.78274809  0.76367087  0.63322972  1
  N  N64  1  0.54853930  0.87787343  0.32536493  1
  N  N65  1  0.44282204  0.76774056  0.07333813  1
  N  N66  1  0.22079725  0.86882407  0.82393680  1
  N  N67  1  0.11941420  0.75682947  0.57386211  1
  N  N68  1  0.88464087  0.87428456  0.38052498  1
  N  N69  1  0.78756319  0.75389581  0.13331555  1
  N  N70  1  0.54958586  0.87535700  0.82478775  1
  N  N71  1  0.44013380  0.77155512  0.57922675  1
