# generated using pymatgen
data_GdAl17N18
_symmetry_space_group_name_H-M   'P 1'
_cell_length_a   9.51315324
_cell_length_b   9.57717318
_cell_length_c   10.42842360
_cell_angle_alpha   89.98066325
_cell_angle_beta   90.15936548
_cell_angle_gamma   59.75788062
_symmetry_Int_Tables_number   1
_chemical_formula_structural   GdAl17N18
_chemical_formula_sum   'Gd2 Al34 N36'
_cell_volume   820.81222955
_cell_formula_units_Z   2
loop_
 _symmetry_equiv_pos_site_id
 _symmetry_equiv_pos_as_xyz
  1  'x, y, z'
loop_
 _atom_site_type_symbol
 _atom_site_label
 _atom_site_symmetry_multiplicity
 _atom_site_fract_x
 _atom_site_fract_y
 _atom_site_fract_z
 _atom_site_occupancy
  Al  Al0  1  0.12086011  0.08371493  0.40538107  1
  Al  Al1  1  0.78619806  0.08659487  0.81619727  1
  Al  Al2  1  0.88494692  0.20125112  0.57579143  1
  Al  Al3  1  0.44528908  0.10044271  0.40562928  1
  Al  Al4  1  0.56267607  0.20619989  0.09633158  1
  Al  Al5  1  0.11425549  0.08817289  0.88160765  1
  Al  Al6  1  0.22106877  0.20548062  0.64487382  1
  Al  Al7  1  0.77835280  0.08977392  0.32041208  1
  Al  Al8  1  0.88117761  0.20403008  0.05336256  1
  Al  Al9  1  0.44710146  0.09467499  0.87751114  1
  Al  Al10  1  0.55247066  0.20728954  0.63615985  1
  Al  Al11  1  0.12024164  0.42985591  0.40507323  1
  Al  Al12  1  0.22233079  0.54271099  0.13906925  1
  Al  Al13  1  0.77657578  0.42831057  0.81202196  1
  Al  Al14  1  0.88579556  0.54570554  0.57659130  1
  Al  Al15  1  0.43678244  0.42321074  0.39744929  1
  Al  Al16  1  0.55939819  0.53738354  0.05367268  1
  Al  Al17  1  0.11328237  0.43133124  0.88129553  1
  Al  Al18  1  0.21831139  0.54443201  0.64290306  1
  Al  Al19  1  0.87985624  0.54951644  0.05376010  1
  Al  Al20  1  0.43816365  0.42852909  0.87686054  1
  Al  Al21  1  0.55251585  0.53973573  0.57813324  1
  Al  Al22  1  0.11788251  0.75749704  0.38570682  1
  Al  Al23  1  0.22319603  0.86756315  0.13848972  1
  Al  Al24  1  0.78026673  0.76254382  0.81447551  1
  Al  Al25  1  0.88416602  0.87523129  0.56306994  1
  Al  Al26  1  0.43353037  0.77089118  0.39648539  1
  Al  Al27  1  0.56745700  0.86300875  0.05952972  1
  Al  Al28  1  0.11519433  0.75860764  0.89426680  1
  Al  Al29  1  0.21895354  0.87057825  0.64322992  1
  Al  Al30  1  0.77632791  0.76661186  0.32061037  1
  Al  Al31  1  0.88414808  0.87393816  0.07259657  1
  Al  Al32  1  0.43765362  0.76443774  0.87486598  1
  Al  Al33  1  0.56173516  0.86928185  0.58138918  1
  Gd  Gd34  1  0.22282208  0.20530588  0.14300477  1
  Gd  Gd35  1  0.77940115  0.42681885  0.31770988  1
  N  N36  1  0.21924048  0.20735075  0.36051351  1
  N  N37  1  0.10643864  0.07473470  0.06481422  1
  N  N38  1  0.88180610  0.20817407  0.86816336  1
  N  N39  1  0.78429712  0.08604732  0.63333391  1
  N  N40  1  0.55402422  0.20618342  0.35296714  1
  N  N41  1  0.47012039  0.08509360  0.06206214  1
  N  N42  1  0.22029273  0.20625024  0.83190877  1
  N  N43  1  0.11720357  0.08961413  0.59143846  1
  N  N44  1  0.89572323  0.17860666  0.39344945  1
  N  N45  1  0.78397208  0.09409047  0.13041309  1
  N  N46  1  0.55426989  0.20812408  0.83307001  1
  N  N47  1  0.44366618  0.09626927  0.59385536  1
  N  N48  1  0.22248458  0.53635664  0.32632754  1
  N  N49  1  0.10516359  0.45311546  0.06500226  1
  N  N50  1  0.88138068  0.54363355  0.86751529  1
  N  N51  1  0.77851621  0.42699144  0.62559678  1
  N  N52  1  0.53130362  0.55038172  0.38997013  1
  N  N53  1  0.44083033  0.42781598  0.06879517  1
  N  N54  1  0.21728987  0.54586238  0.82524387  1
  N  N55  1  0.11724686  0.42620534  0.59164033  1
  N  N56  1  0.89493394  0.55954470  0.39377839  1
  N  N57  1  0.78122395  0.42593110  0.09990090  1
  N  N58  1  0.55563884  0.53796880  0.86401861  1
  N  N59  1  0.43829796  0.42586409  0.58880006  1
  N  N60  1  0.22190414  0.87534648  0.32594049  1
  N  N61  1  0.11730212  0.75774429  0.08150072  1
  N  N62  1  0.88215283  0.87456953  0.88542376  1
  N  N63  1  0.78216690  0.76387170  0.63299205  1
  N  N64  1  0.55971166  0.87185958  0.38678272  1
  N  N65  1  0.44009220  0.76347252  0.07223682  1
  N  N66  1  0.21680820  0.87006803  0.82528442  1
  N  N67  1  0.11753328  0.75802933  0.57354165  1
  N  N68  1  0.88454926  0.87434557  0.37613666  1
  N  N69  1  0.77790422  0.75869513  0.13214477  1
  N  N70  1  0.56113779  0.86647075  0.86680569  1
  N  N71  1  0.43820957  0.76700714  0.59119539  1
