# generated using pymatgen
data_GdAl17N18
_symmetry_space_group_name_H-M   'P 1'
_cell_length_a   9.53816016
_cell_length_b   9.53701786
_cell_length_c   10.28458652
_cell_angle_alpha   90.20576850
_cell_angle_beta   89.50806239
_cell_angle_gamma   60.06149462
_symmetry_Int_Tables_number   1
_chemical_formula_structural   GdAl17N18
_chemical_formula_sum   'Gd2 Al34 N36'
_cell_volume   810.64275765
_cell_formula_units_Z   2
loop_
 _symmetry_equiv_pos_site_id
 _symmetry_equiv_pos_as_xyz
  1  'x, y, z'
loop_
 _atom_site_type_symbol
 _atom_site_label
 _atom_site_symmetry_multiplicity
 _atom_site_fract_x
 _atom_site_fract_y
 _atom_site_fract_z
 _atom_site_occupancy
  Al  Al0  1  0.12267540  0.07869041  0.39016859  1
  Al  Al1  1  0.77476492  0.09159615  0.80723289  1
  Al  Al2  1  0.88512676  0.20134069  0.56918009  1
  Al  Al3  1  0.46028252  0.08541636  0.31660696  1
  Al  Al4  1  0.56044665  0.20414264  0.06088520  1
  Al  Al5  1  0.11105162  0.09119553  0.86254153  1
  Al  Al6  1  0.22937784  0.20237100  0.59059851  1
  Al  Al7  1  0.78306977  0.08670038  0.30916074  1
  Al  Al8  1  0.87578502  0.20559329  0.04135528  1
  Al  Al9  1  0.44482048  0.09498285  0.81017873  1
  Al  Al10  1  0.55770761  0.20549464  0.56011268  1
  Al  Al11  1  0.12216769  0.42996296  0.38891141  1
  Al  Al12  1  0.21283589  0.54956936  0.12748477  1
  Al  Al13  1  0.77327287  0.43082138  0.80399497  1
  Al  Al14  1  0.88509721  0.54551993  0.56761553  1
  Al  Al15  1  0.44592466  0.42464269  0.30941829  1
  Al  Al16  1  0.54982333  0.54208930  0.05079761  1
  Al  Al17  1  0.11120884  0.43591805  0.86828884  1
  Al  Al18  1  0.21887816  0.54393709  0.63125512  1
  Al  Al19  1  0.87385832  0.55373733  0.04152855  1
  Al  Al20  1  0.44902172  0.42441976  0.80969562  1
  Al  Al21  1  0.54890223  0.54135315  0.56143503  1
  Al  Al22  1  0.11805954  0.75600512  0.37842160  1
  Al  Al23  1  0.21279630  0.87305305  0.12986339  1
  Al  Al24  1  0.77490983  0.76747761  0.80693409  1
  Al  Al25  1  0.88247167  0.87487255  0.55680461  1
  Al  Al26  1  0.44721194  0.75971195  0.31052956  1
  Al  Al27  1  0.55990663  0.86922330  0.06093901  1
  Al  Al28  1  0.11586809  0.76070340  0.88182544  1
  Al  Al29  1  0.21964218  0.86900123  0.63030746  1
  Al  Al30  1  0.78284340  0.76100018  0.30860755  1
  Al  Al31  1  0.88211460  0.87608944  0.06127173  1
  Al  Al32  1  0.44896741  0.76107351  0.80946752  1
  Al  Al33  1  0.55788115  0.86916013  0.56009858  1
  Gd  Gd34  1  0.21411279  0.21131032  0.10667312  1
  Gd  Gd35  1  0.78410775  0.42154247  0.30745031  1
  N  N36  1  0.22864434  0.20096927  0.35480801  1
  N  N37  1  0.09613364  0.07517157  0.05720222  1
  N  N38  1  0.87914423  0.20913310  0.85297123  1
  N  N39  1  0.77581417  0.09030465  0.62230817  1
  N  N40  1  0.55939434  0.20615566  0.37284132  1
  N  N41  1  0.47991488  0.07689513  0.13114299  1
  N  N42  1  0.22060522  0.20875240  0.84474194  1
  N  N43  1  0.11814234  0.08787855  0.58103275  1
  N  N44  1  0.89916789  0.17542190  0.38394508  1
  N  N45  1  0.77779095  0.09719596  0.12088579  1
  N  N46  1  0.55359669  0.20634644  0.87211090  1
  N  N47  1  0.45280908  0.08995944  0.61988715  1
  N  N48  1  0.21732294  0.54013160  0.31545559  1
  N  N49  1  0.09524386  0.46558586  0.05403387  1
  N  N50  1  0.87864863  0.54684183  0.85324174  1
  N  N51  1  0.77589069  0.42830873  0.61325588  1
  N  N52  1  0.52728854  0.55160985  0.37838917  1
  N  N53  1  0.44956407  0.42531939  0.11855102  1
  N  N54  1  0.21752933  0.54728706  0.81604584  1
  N  N55  1  0.11834970  0.42739568  0.57738348  1
  N  N56  1  0.89798168  0.55536678  0.38138914  1
  N  N57  1  0.77767278  0.42812163  0.08747099  1
  N  N58  1  0.54992835  0.54252793  0.86497439  1
  N  N59  1  0.45128019  0.42206612  0.62158329  1
  N  N60  1  0.21882707  0.87203234  0.31848048  1
  N  N61  1  0.11459607  0.76061756  0.06930865  1
  N  N62  1  0.88195605  0.87641931  0.87211276  1
  N  N63  1  0.77621686  0.76582694  0.62170644  1
  N  N64  1  0.55974285  0.86621959  0.37299749  1
  N  N65  1  0.44971810  0.75867851  0.11968104  1
  N  N66  1  0.21749825  0.87148522  0.81545772  1
  N  N67  1  0.11636449  0.75751857  0.56565173  1
  N  N68  1  0.88516525  0.87281452  0.36745969  1
  N  N69  1  0.77743625  0.75986763  0.12058141  1
  N  N70  1  0.55328522  0.87506806  0.87194151  1
  N  N71  1  0.45175048  0.75871379  0.62114647  1
