# generated using pymatgen
data_GdAl17N18
_symmetry_space_group_name_H-M   'P 1'
_cell_length_a   9.53470753
_cell_length_b   9.51557176
_cell_length_c   10.30476239
_cell_angle_alpha   90.18053348
_cell_angle_beta   89.61057289
_cell_angle_gamma   60.05643143
_symmetry_Int_Tables_number   1
_chemical_formula_structural   GdAl17N18
_chemical_formula_sum   'Gd2 Al34 N36'
_cell_volume   810.09348611
_cell_formula_units_Z   2
loop_
 _symmetry_equiv_pos_site_id
 _symmetry_equiv_pos_as_xyz
  1  'x, y, z'
loop_
 _atom_site_type_symbol
 _atom_site_label
 _atom_site_symmetry_multiplicity
 _atom_site_fract_x
 _atom_site_fract_y
 _atom_site_fract_z
 _atom_site_occupancy
  Al  Al0  1  0.10863509  0.09041930  0.32117948  1
  Al  Al1  1  0.77607816  0.09162340  0.81016331  1
  Al  Al2  1  0.88832452  0.20032252  0.56511150  1
  Al  Al3  1  0.45521787  0.08853035  0.31637074  1
  Al  Al4  1  0.56104856  0.20505460  0.06285889  1
  Al  Al5  1  0.10408343  0.10036051  0.80060029  1
  Al  Al6  1  0.22856572  0.19544650  0.56587114  1
  Al  Al7  1  0.78131234  0.08840045  0.30981071  1
  Al  Al8  1  0.88413504  0.20302312  0.05015167  1
  Al  Al9  1  0.44647169  0.09375774  0.80293300  1
  Al  Al10  1  0.55807724  0.20529980  0.55993051  1
  Al  Al11  1  0.12031228  0.43108897  0.38557289  1
  Al  Al12  1  0.21280803  0.54738525  0.13230708  1
  Al  Al13  1  0.77257793  0.42901537  0.80901359  1
  Al  Al14  1  0.88396165  0.54552512  0.56961225  1
  Al  Al15  1  0.44782834  0.42522273  0.31184692  1
  Al  Al16  1  0.54946513  0.54235655  0.05125613  1
  Al  Al17  1  0.10677123  0.43344861  0.83530446  1
  Al  Al18  1  0.22086525  0.54372575  0.62857743  1
  Al  Al19  1  0.88101204  0.54889450  0.04307877  1
  Al  Al20  1  0.44809485  0.42429406  0.80959944  1
  Al  Al21  1  0.55200222  0.53982892  0.56298731  1
  Al  Al22  1  0.11799539  0.75748122  0.38251049  1
  Al  Al23  1  0.21570269  0.86701521  0.13564382  1
  Al  Al24  1  0.77352777  0.76854020  0.80824692  1
  Al  Al25  1  0.88113494  0.87640392  0.55882606  1
  Al  Al26  1  0.44890528  0.75938027  0.31380858  1
  Al  Al27  1  0.56221037  0.86844392  0.06327786  1
  Al  Al28  1  0.11620308  0.75994581  0.88218181  1
  Al  Al29  1  0.22113767  0.86623073  0.62682236  1
  Al  Al30  1  0.78308285  0.76301003  0.30959668  1
  Al  Al31  1  0.88208520  0.87546787  0.06188028  1
  Al  Al32  1  0.44740360  0.76183475  0.81068403  1
  Al  Al33  1  0.55833735  0.86896483  0.55908892  1
  Gd  Gd34  1  0.22755377  0.19861874  0.06386861  1
  Gd  Gd35  1  0.78545465  0.42520905  0.30417399  1
  N  N36  1  0.22751896  0.19872735  0.37020778  1
  N  N37  1  0.08362283  0.09253083  0.13379993  1
  N  N38  1  0.88703098  0.20396251  0.86300081  1
  N  N39  1  0.77596472  0.09238729  0.62460726  1
  N  N40  1  0.55878531  0.20633846  0.37359773  1
  N  N41  1  0.48000792  0.07784591  0.13430129  1
  N  N42  1  0.22044346  0.20636382  0.84094872  1
  N  N43  1  0.10868626  0.09526805  0.61456527  1
  N  N44  1  0.89874491  0.17822686  0.38473144  1
  N  N45  1  0.77787283  0.09640838  0.12078304  1
  N  N46  1  0.55254980  0.20600328  0.87253710  1
  N  N47  1  0.45037204  0.09040083  0.61636575  1
  N  N48  1  0.21970002  0.54111789  0.32148790  1
  N  N49  1  0.09667770  0.45702867  0.07280788  1
  N  N50  1  0.87954263  0.54619977  0.85425611  1
  N  N51  1  0.77662703  0.42680443  0.61781758  1
  N  N52  1  0.53247325  0.54977915  0.38018519  1
  N  N53  1  0.44967721  0.42639184  0.12113198  1
  N  N54  1  0.21698257  0.54686968  0.81484765  1
  N  N55  1  0.11612107  0.42566420  0.58727289  1
  N  N56  1  0.89746215  0.55800805  0.38547370  1
  N  N57  1  0.77528763  0.43042839  0.08516183  1
  N  N58  1  0.54872913  0.54221608  0.86558482  1
  N  N59  1  0.45175560  0.42210698  0.62165990  1
  N  N60  1  0.22439958  0.86481763  0.32551510  1
  N  N61  1  0.11509319  0.76029064  0.06901145  1
  N  N62  1  0.88196954  0.87556520  0.87315419  1
  N  N63  1  0.77511786  0.76670171  0.62369907  1
  N  N64  1  0.56069482  0.86695500  0.37293289  1
  N  N65  1  0.44945530  0.75990649  0.12059920  1
  N  N66  1  0.21742991  0.87217056  0.81927087  1
  N  N67  1  0.11429162  0.75828673  0.56808099  1
  N  N68  1  0.88513510  0.87469050  0.36957500  1
  N  N69  1  0.77913914  0.75826998  0.12116493  1
  N  N70  1  0.55200644  0.87642248  0.87312989  1
  N  N71  1  0.45165651  0.75900145  0.62180134  1
