# generated using pymatgen
data_GdAl17N18
_symmetry_space_group_name_H-M   'P 1'
_cell_length_a   9.54470973
_cell_length_b   9.54134592
_cell_length_c   10.27089059
_cell_angle_alpha   90.26447809
_cell_angle_beta   89.51699953
_cell_angle_gamma   60.07861472
_symmetry_Int_Tables_number   1
_chemical_formula_structural   GdAl17N18
_chemical_formula_sum   'Gd2 Al34 N36'
_cell_volume   810.61879078
_cell_formula_units_Z   2
loop_
 _symmetry_equiv_pos_site_id
 _symmetry_equiv_pos_as_xyz
  1  'x, y, z'
loop_
 _atom_site_type_symbol
 _atom_site_label
 _atom_site_symmetry_multiplicity
 _atom_site_fract_x
 _atom_site_fract_y
 _atom_site_fract_z
 _atom_site_occupancy
  Al  Al0  1  0.12149658  0.07853383  0.38629453  1
  Al  Al1  1  0.77440158  0.09141076  0.80775630  1
  Al  Al2  1  0.88433759  0.20172202  0.56959684  1
  Al  Al3  1  0.46047532  0.08507039  0.31648826  1
  Al  Al4  1  0.56060297  0.20401573  0.06136637  1
  Al  Al5  1  0.10893035  0.09601882  0.84182818  1
  Al  Al6  1  0.23138843  0.20174730  0.57973639  1
  Al  Al7  1  0.78312144  0.08637726  0.30889696  1
  Al  Al8  1  0.87823337  0.20456716  0.04200702  1
  Al  Al9  1  0.44461001  0.09529365  0.80937809  1
  Al  Al10  1  0.55781335  0.20544648  0.56017650  1
  Al  Al11  1  0.12137002  0.43098016  0.38836138  1
  Al  Al12  1  0.21262934  0.54953008  0.12734603  1
  Al  Al13  1  0.77241753  0.43164510  0.80473360  1
  Al  Al14  1  0.88505259  0.54528851  0.56785976  1
  Al  Al15  1  0.44623855  0.42433879  0.30933540  1
  Al  Al16  1  0.54939934  0.54227707  0.05096352  1
  Al  Al17  1  0.11037608  0.43757754  0.86809387  1
  Al  Al18  1  0.21879046  0.54354114  0.63136426  1
  Al  Al19  1  0.87350889  0.55378839  0.04177890  1
  Al  Al20  1  0.44875212  0.42461189  0.80980828  1
  Al  Al21  1  0.54948968  0.54074581  0.56136989  1
  Al  Al22  1  0.11803339  0.75513422  0.37903308  1
  Al  Al23  1  0.21262230  0.87287406  0.13218293  1
  Al  Al24  1  0.77477836  0.76767877  0.80711629  1
  Al  Al25  1  0.88217756  0.87496492  0.55706047  1
  Al  Al26  1  0.44845710  0.75860810  0.31116664  1
  Al  Al27  1  0.56017036  0.86889739  0.06152199  1
  Al  Al28  1  0.11580964  0.76151309  0.88227312  1
  Al  Al29  1  0.22074048  0.86689291  0.62894888  1
  Al  Al30  1  0.78276000  0.76090966  0.30857642  1
  Al  Al31  1  0.88220554  0.87632192  0.06167230  1
  Al  Al32  1  0.44869924  0.76148415  0.80978856  1
  Al  Al33  1  0.55818410  0.86890752  0.56012405  1
  Gd  Gd34  1  0.21723056  0.20925661  0.09760312  1
  Gd  Gd35  1  0.78556770  0.41983747  0.30622179  1
  N  N36  1  0.23014150  0.19969166  0.36126586  1
  N  N37  1  0.09218801  0.07860044  0.07352160  1
  N  N38  1  0.88000908  0.20875411  0.85300199  1
  N  N39  1  0.77547778  0.09035331  0.62277555  1
  N  N40  1  0.55959710  0.20597768  0.37289627  1
  N  N41  1  0.48121992  0.07596780  0.13216650  1
  N  N42  1  0.22119358  0.20941240  0.84837490  1
  N  N43  1  0.11640773  0.08964709  0.58813471  1
  N  N44  1  0.89928678  0.17460491  0.38547707  1
  N  N45  1  0.77702778  0.09770484  0.12051774  1
  N  N46  1  0.55336344  0.20652657  0.87209221  1
  N  N47  1  0.45229129  0.09010402  0.61960998  1
  N  N48  1  0.21765688  0.53971773  0.31557662  1
  N  N49  1  0.09395785  0.46684780  0.05441179  1
  N  N50  1  0.87847119  0.54707029  0.85298758  1
  N  N51  1  0.77566165  0.42834986  0.61385415  1
  N  N52  1  0.52911937  0.55014843  0.37808903  1
  N  N53  1  0.44914106  0.42538790  0.11837902  1
  N  N54  1  0.21752589  0.54785637  0.81629081  1
  N  N55  1  0.11799209  0.42770989  0.57747669  1
  N  N56  1  0.89759901  0.55512400  0.38114683  1
  N  N57  1  0.77644003  0.42880267  0.08625864  1
  N  N58  1  0.54930606  0.54297189  0.86483581  1
  N  N59  1  0.45112233  0.42210216  0.62150391  1
  N  N60  1  0.22091896  0.86912802  0.32184736  1
  N  N61  1  0.11480521  0.76070580  0.06959733  1
  N  N62  1  0.88206231  0.87645491  0.87216009  1
  N  N63  1  0.77608401  0.76581320  0.62172322  1
  N  N64  1  0.56014194  0.86595844  0.37317580  1
  N  N65  1  0.44946043  0.75879227  0.12014004  1
  N  N66  1  0.21729475  0.87218258  0.81558481  1
  N  N67  1  0.11579063  0.75705498  0.56619080  1
  N  N68  1  0.88536045  0.87258061  0.36747864  1
  N  N69  1  0.77744234  0.75992468  0.12055961  1
  N  N70  1  0.55306930  0.87546244  0.87192173  1
  N  N71  1  0.45190857  0.75842732  0.62096358  1
