# generated using pymatgen
data_GdAl17N18
_symmetry_space_group_name_H-M   'P 1'
_cell_length_a   9.48561821
_cell_length_b   9.50871186
_cell_length_c   10.40761876
_cell_angle_alpha   90.00000046
_cell_angle_beta   89.52600371
_cell_angle_gamma   59.91943251
_symmetry_Int_Tables_number   1
_chemical_formula_structural   GdAl17N18
_chemical_formula_sum   'Gd2 Al34 N36'
_cell_volume   812.26236517
_cell_formula_units_Z   2
loop_
 _symmetry_equiv_pos_site_id
 _symmetry_equiv_pos_as_xyz
  1  'x, y, z'
loop_
 _atom_site_type_symbol
 _atom_site_label
 _atom_site_symmetry_multiplicity
 _atom_site_fract_x
 _atom_site_fract_y
 _atom_site_fract_z
 _atom_site_occupancy
  Al  Al0  1  0.12526562  0.08270756  0.40626392  1
  Al  Al1  1  0.77555853  0.09127968  0.81923222  1
  Al  Al2  1  0.88497440  0.20203799  0.58009629  1
  Al  Al3  1  0.45805549  0.08759975  0.32891207  1
  Al  Al4  1  0.55978101  0.20450724  0.07444109  1
  Al  Al5  1  0.11192692  0.08652818  0.88102588  1
  Al  Al6  1  0.21967462  0.20679023  0.64630042  1
  Al  Al7  1  0.78313268  0.08838385  0.32262877  1
  Al  Al8  1  0.87611426  0.20445475  0.05377394  1
  Al  Al9  1  0.45100927  0.09112289  0.82463730  1
  Al  Al10  1  0.55544457  0.20549176  0.57341430  1
  Al  Al11  1  0.12526563  0.42528189  0.40626392  1
  Al  Al12  1  0.21410962  0.54770362  0.14112751  1
  Al  Al13  1  0.77431323  0.42947090  0.81604491  1
  Al  Al14  1  0.88497438  0.54624266  0.58009628  1
  Al  Al15  1  0.44496122  0.42600393  0.32322436  1
  Al  Al16  1  0.55250040  0.54037732  0.06397527  1
  Al  Al17  1  0.11192688  0.43480000  0.88102588  1
  Al  Al18  1  0.21864825  0.54419059  0.64388555  1
  Al  Al19  1  0.87611427  0.55268604  0.05377395  1
  Al  Al20  1  0.44982472  0.42402567  0.82176942  1
  Al  Al21  1  0.54835433  0.54245034  0.57465051  1
  Al  Al22  1  0.11839337  0.75743085  0.39070389  1
  Al  Al23  1  0.21410962  0.87144185  0.14112752  1
  Al  Al24  1  0.77555852  0.76641688  0.81923222  1
  Al  Al25  1  0.88260070  0.87532718  0.56894452  1
  Al  Al26  1  0.44496123  0.76228987  0.32322436  1
  Al  Al27  1  0.55978101  0.86896679  0.07444109  1
  Al  Al28  1  0.11639893  0.75842809  0.89468027  1
  Al  Al29  1  0.21864829  0.87041620  0.64388554  1
  Al  Al30  1  0.78313269  0.76173849  0.32262877  1
  Al  Al31  1  0.88245320  0.87540092  0.07367791  1
  Al  Al32  1  0.44982474  0.75940464  0.82176942  1
  Al  Al33  1  0.55544458  0.87231871  0.57341431  1
  Gd  Gd34  1  0.20677418  0.21324046  0.13315093  1
  Gd  Gd35  1  0.78179525  0.42572987  0.32063820  1
  N  N36  1  0.22353326  0.20486091  0.35353633  1
  N  N37  1  0.10119021  0.07140887  0.06221877  1
  N  N38  1  0.87848975  0.20862250  0.86769218  1
  N  N39  1  0.77630973  0.09057088  0.63574481  1
  N  N40  1  0.55778449  0.20702420  0.38693942  1
  N  N41  1  0.47642255  0.07841624  0.14271939  1
  N  N42  1  0.21604384  0.20860563  0.83670385  1
  N  N43  1  0.11967092  0.08879092  0.59164550  1
  N  N44  1  0.89822115  0.17896257  0.39701939  1
  N  N45  1  0.77928909  0.09578017  0.13523312  1
  N  N46  1  0.55342240  0.20645202  0.88722985  1
  N  N47  1  0.45237314  0.09044095  0.63697424  1
  N  N48  1  0.21494935  0.54066710  0.32757147  1
  N  N49  1  0.10119020  0.46065602  0.06221877  1
  N  N50  1  0.87848972  0.54614282  0.86769218  1
  N  N51  1  0.77653232  0.42836136  0.62768568  1
  N  N52  1  0.52369241  0.55478131  0.39380008  1
  N  N53  1  0.45211865  0.42479646  0.13407926  1
  N  N54  1  0.21708228  0.54645486  0.82677021  1
  N  N55  1  0.11967090  0.42479323  0.59164550  1
  N  N56  1  0.89822115  0.55607129  0.39701938  1
  N  N57  1  0.78255992  0.42534757  0.10237308  1
  N  N58  1  0.55092607  0.54116449  0.87973880  1
  N  N59  1  0.45237889  0.42188048  0.63588297  1
  N  N60  1  0.21494936  0.87763862  0.32757148  1
  N  N61  1  0.11634721  0.75845394  0.08029408  1
  N  N62  1  0.88110018  0.87607745  0.88617907  1
  N  N63  1  0.77630975  0.76637444  0.63574481  1
  N  N64  1  0.55778449  0.86844633  0.38693943  1
  N  N65  1  0.45211866  0.75633991  0.13407926  1
  N  N66  1  0.21708230  0.86971795  0.82677020  1
  N  N67  1  0.11813435  0.75756036  0.57626663  1
  N  N68  1  0.88406080  0.87459712  0.38176783  1
  N  N69  1  0.77928908  0.75818580  0.13523312  1
  N  N70  1  0.55342239  0.87338064  0.88722985  1
  N  N71  1  0.45237894  0.75899564  0.63588297  1
