# generated using pymatgen
data_GdAl17N18
_symmetry_space_group_name_H-M   'P 1'
_cell_length_a   9.50898135
_cell_length_b   9.51312277
_cell_length_c   10.12980983
_cell_angle_alpha   89.99999951
_cell_angle_beta   89.92923461
_cell_angle_gamma   59.98559366
_symmetry_Int_Tables_number   1
_chemical_formula_structural   GdAl17N18
_chemical_formula_sum   'Gd2 Al34 N36'
_cell_volume   793.46087202
_cell_formula_units_Z   2
loop_
 _symmetry_equiv_pos_site_id
 _symmetry_equiv_pos_as_xyz
  1  'x, y, z'
loop_
 _atom_site_type_symbol
 _atom_site_label
 _atom_site_symmetry_multiplicity
 _atom_site_fract_x
 _atom_site_fract_y
 _atom_site_fract_z
 _atom_site_occupancy
  Al  Al0  1  0.11317619  0.08691173  0.42073874  1
  Al  Al1  1  0.77658099  0.09321148  0.91220404  1
  Al  Al2  1  0.88732610  0.20405407  0.67000445  1
  Al  Al3  1  0.44716454  0.09308615  0.42048926  1
  Al  Al4  1  0.56071428  0.20330459  0.16077063  1
  Al  Al5  1  0.10965383  0.08914746  0.90599879  1
  Al  Al6  1  0.22205165  0.20564259  0.66165181  1
  Al  Al7  1  0.78032524  0.08801897  0.41089560  1
  Al  Al8  1  0.88910871  0.19508875  0.15604527  1
  Al  Al9  1  0.45103505  0.09115090  0.90625702  1
  Al  Al10  1  0.55709931  0.20651211  0.66164743  1
  Al  Al11  1  0.11317618  0.43324891  0.42073873  1
  Al  Al12  1  0.22032267  0.54447340  0.16157938  1
  Al  Al13  1  0.77755655  0.42789014  0.91272096  1
  Al  Al14  1  0.88732610  0.54195668  0.67000445  1
  Al  Al15  1  0.43818694  0.43002488  0.41053887  1
  Al  Al16  1  0.54742434  0.54295625  0.15574907  1
  Al  Al17  1  0.10965383  0.43453554  0.90599880  1
  Al  Al18  1  0.22299944  0.54120149  0.66192308  1
  Al  Al19  1  0.88910872  0.54913938  0.15604527  1
  Al  Al20  1  0.44308470  0.42691721  0.91186499  1
  Al  Al21  1  0.55291344  0.54021170  0.66982925  1
  Al  Al22  1  0.11060459  0.76136611  0.41007587  1
  Al  Al23  1  0.22032266  0.86854076  0.16157938  1
  Al  Al24  1  0.77658099  0.76354438  0.91220404  1
  Al  Al25  1  0.88946531  0.87193577  0.66130343  1
  Al  Al26  1  0.43818692  0.76512502  0.41053887  1
  Al  Al27  1  0.56071430  0.86931797  0.16077063  1
  Al  Al28  1  0.11150810  0.76091436  0.91221093  1
  Al  Al29  1  0.22299944  0.86913589  0.66192308  1
  Al  Al30  1  0.78032523  0.76499263  0.41089561  1
  Al  Al31  1  0.88880602  0.87226542  0.16089011  1
  Al  Al32  1  0.44308471  0.76333492  0.91186500  1
  Al  Al33  1  0.55709931  0.86972542  0.66164744  1
  Gd  Gd34  1  0.22029596  0.20652043  0.16035599  1
  Gd  Gd35  1  0.77677104  0.42828289  0.40615843  1
  N  N36  1  0.22079185  0.20627249  0.38313353  1
  N  N37  1  0.09930712  0.07645929  0.08979638  1
  N  N38  1  0.88640978  0.20477420  0.85691182  1
  N  N39  1  0.77851328  0.09441236  0.60187491  1
  N  N40  1  0.55547315  0.20547948  0.35348283  1
  N  N41  1  0.47340769  0.07996458  0.09263004  1
  N  N42  1  0.22229236  0.20552224  0.85707611  1
  N  N43  1  0.10865100  0.09299058  0.61029444  1
  N  N44  1  0.90621493  0.17341145  0.34311208  1
  N  N45  1  0.77624720  0.09209828  0.10032810  1
  N  N46  1  0.55679543  0.20707415  0.84986015  1
  N  N47  1  0.44780380  0.09276652  0.60888202  1
  N  N48  1  0.22127925  0.53857245  0.35285689  1
  N  N49  1  0.09930713  0.45757040  0.08979639  1
  N  N50  1  0.88640978  0.54215287  0.85691183  1
  N  N51  1  0.77715508  0.42809089  0.62757135  1
  N  N52  1  0.52251675  0.55541004  0.34106502  1
  N  N53  1  0.44245205  0.42531589  0.10103056  1
  N  N54  1  0.22402113  0.54116512  0.84954133  1
  N  N55  1  0.10865100  0.43169525  0.61029444  1
  N  N56  1  0.90621492  0.55371046  0.34311207  1
  N  N57  1  0.77900005  0.42716839  0.10989193  1
  N  N58  1  0.55291479  0.54021103  0.85942806  1
  N  N59  1  0.44532494  0.42844982  0.60191443  1
  N  N60  1  0.22127924  0.87348513  0.35285689  1
  N  N61  1  0.11093896  0.76119893  0.10276799  1
  N  N62  1  0.88946873  0.87193406  0.85161417  1
  N  N63  1  0.77851328  0.76041119  0.60187491  1
  N  N64  1  0.55547314  0.87238422  0.35348283  1
  N  N65  1  0.44245205  0.76556890  0.10103057  1
  N  N66  1  0.22402114  0.86815058  0.84954133  1
  N  N67  1  0.11070244  0.76131719  0.60044405  1
  N  N68  1  0.88930638  0.87201523  0.35135884  1
  N  N69  1  0.77624720  0.76499137  0.10032810  1
  N  N70  1  0.55679544  0.86946726  0.84986015  1
  N  N71  1  0.44532494  0.75956206  0.60191443  1
