# generated using pymatgen
data_GdAl17N18
_symmetry_space_group_name_H-M   'P 1'
_cell_length_a   9.52903824
_cell_length_b   9.53127055
_cell_length_c   10.15252395
_cell_angle_alpha   89.98616464
_cell_angle_beta   89.89422287
_cell_angle_gamma   60.00055177
_symmetry_Int_Tables_number   1
_chemical_formula_structural   GdAl17N18
_chemical_formula_sum   'Gd2 Al34 N36'
_cell_volume   798.55725786
_cell_formula_units_Z   2
loop_
 _symmetry_equiv_pos_site_id
 _symmetry_equiv_pos_as_xyz
  1  'x, y, z'
loop_
 _atom_site_type_symbol
 _atom_site_label
 _atom_site_symmetry_multiplicity
 _atom_site_fract_x
 _atom_site_fract_y
 _atom_site_fract_z
 _atom_site_occupancy
  Al  Al0  1  0.11086136  0.08524021  0.31724364  1
  Al  Al1  1  0.77554595  0.09362109  0.81124172  1
  Al  Al2  1  0.89030846  0.19873666  0.56749801  1
  Al  Al3  1  0.45255241  0.09039191  0.31768742  1
  Al  Al4  1  0.56150185  0.20351160  0.06293505  1
  Al  Al5  1  0.11225307  0.09246915  0.80322393  1
  Al  Al6  1  0.22241750  0.20540049  0.56067476  1
  Al  Al7  1  0.77914646  0.08971557  0.31171332  1
  Al  Al8  1  0.88672028  0.20021915  0.05310977  1
  Al  Al9  1  0.44677121  0.09321182  0.80388017  1
  Al  Al10  1  0.55672013  0.20639196  0.56139236  1
  Al  Al11  1  0.11073364  0.43733062  0.31743344  1
  Al  Al12  1  0.22170958  0.54114405  0.06518642  1
  Al  Al13  1  0.77773129  0.42771544  0.81206040  1
  Al  Al14  1  0.89022175  0.54419593  0.56757090  1
  Al  Al15  1  0.44065891  0.42905782  0.31264658  1
  Al  Al16  1  0.55286932  0.54022448  0.05329672  1
  Al  Al17  1  0.11222438  0.42850526  0.80321383  1
  Al  Al18  1  0.22543913  0.53581468  0.56418966  1
  Al  Al19  1  0.88660154  0.54654188  0.05314537  1
  Al  Al20  1  0.44358994  0.42601748  0.81168312  1
  Al  Al21  1  0.54899517  0.54210568  0.56733176  1
  Al  Al22  1  0.11092081  0.76120803  0.36071121  1
  Al  Al23  1  0.22180670  0.87060483  0.06492338  1
  Al  Al24  1  0.77552265  0.76405962  0.81124726  1
  Al  Al25  1  0.88389843  0.87464897  0.56445123  1
  Al  Al26  1  0.44063520  0.76359280  0.31255782  1
  Al  Al27  1  0.56141873  0.86842069  0.06289767  1
  Al  Al28  1  0.10996814  0.76159309  0.85756071  1
  Al  Al29  1  0.22544994  0.87198715  0.56416992  1
  Al  Al30  1  0.77907921  0.76448440  0.31171379  1
  Al  Al31  1  0.88434436  0.87452230  0.06481311  1
  Al  Al32  1  0.44364148  0.76354549  0.81161741  1
  Al  Al33  1  0.55669583  0.87011850  0.56135681  1
  Gd  Gd34  1  0.22320147  0.20533434  0.06676535  1
  Gd  Gd35  1  0.78002865  0.42663422  0.31355484  1
  N  N36  1  0.22116862  0.20609987  0.36410111  1
  N  N37  1  0.09343969  0.08108506  0.13122160  1
  N  N38  1  0.89112406  0.20163394  0.86367936  1
  N  N39  1  0.77463280  0.09388583  0.62443418  1
  N  N40  1  0.55770287  0.20777145  0.37262203  1
  N  N41  1  0.47712509  0.07811915  0.13236837  1
  N  N42  1  0.22269362  0.20525969  0.84597686  1
  N  N43  1  0.11290003  0.09272566  0.61711048  1
  N  N44  1  0.90102767  0.17533186  0.38387877  1
  N  N45  1  0.77760574  0.09624266  0.12130370  1
  N  N46  1  0.55425467  0.20506441  0.87197848  1
  N  N47  1  0.44697949  0.09310222  0.61424144  1
  N  N48  1  0.22720739  0.53470138  0.37384401  1
  N  N49  1  0.09315332  0.45921023  0.13147786  1
  N  N50  1  0.89110644  0.54046194  0.86368863  1
  N  N51  1  0.77761140  0.42775465  0.61662884  1
  N  N52  1  0.52671179  0.55330409  0.38106525  1
  N  N53  1  0.44550880  0.42721089  0.12089718  1
  N  N54  1  0.22434769  0.53230865  0.87150290  1
  N  N55  1  0.11286898  0.42758128  0.61710449  1
  N  N56  1  0.90087722  0.55702121  0.38398412  1
  N  N57  1  0.77898217  0.42716911  0.09098612  1
  N  N58  1  0.55184006  0.54066971  0.86507894  1
  N  N59  1  0.44453795  0.42528510  0.62419226  1
  N  N60  1  0.22720935  0.87143927  0.37379694  1
  N  N61  1  0.10921425  0.76216117  0.08902027  1
  N  N62  1  0.88174903  0.87572824  0.87236892  1
  N  N63  1  0.77458876  0.76468828  0.62445340  1
  N  N64  1  0.55763532  0.86786995  0.37259023  1
  N  N65  1  0.44552666  0.76058029  0.12080554  1
  N  N66  1  0.22438797  0.87647762  0.87132086  1
  N  N67  1  0.11002846  0.76158799  0.59434329  1
  N  N68  1  0.88317739  0.87505250  0.37132988  1
  N  N69  1  0.77750200  0.75959457  0.12129949  1
  N  N70  1  0.55423875  0.87389889  0.87194797  1
  N  N71  1  0.44456283  0.76333210  0.62414971  1
