# generated using pymatgen
data_GdAl17N18
_symmetry_space_group_name_H-M   'P 1'
_cell_length_a   9.53220638
_cell_length_b   9.53044956
_cell_length_c   10.17991294
_cell_angle_alpha   89.91392081
_cell_angle_beta   89.83513334
_cell_angle_gamma   60.01871200
_symmetry_Int_Tables_number   1
_chemical_formula_structural   GdAl17N18
_chemical_formula_sum   'Gd2 Al34 N36'
_cell_volume   801.05360181
_cell_formula_units_Z   2
loop_
 _symmetry_equiv_pos_site_id
 _symmetry_equiv_pos_as_xyz
  1  'x, y, z'
loop_
 _atom_site_type_symbol
 _atom_site_label
 _atom_site_symmetry_multiplicity
 _atom_site_fract_x
 _atom_site_fract_y
 _atom_site_fract_z
 _atom_site_occupancy
  Al  Al0  1  0.11148988  0.08531097  0.31626940  1
  Al  Al1  1  0.77606966  0.09278400  0.81105881  1
  Al  Al2  1  0.89068145  0.19837213  0.56692585  1
  Al  Al3  1  0.45238760  0.09040358  0.31711238  1
  Al  Al4  1  0.56097942  0.20439883  0.06237780  1
  Al  Al5  1  0.11233068  0.09121513  0.80290035  1
  Al  Al6  1  0.22294250  0.20412925  0.56074934  1
  Al  Al7  1  0.77975977  0.08941914  0.31122981  1
  Al  Al8  1  0.88677372  0.20059771  0.05205680  1
  Al  Al9  1  0.44666388  0.09318294  0.80347701  1
  Al  Al10  1  0.55769209  0.20516462  0.56113743  1
  Al  Al11  1  0.10988364  0.43606607  0.32064783  1
  Al  Al12  1  0.22104242  0.54259089  0.08122209  1
  Al  Al13  1  0.77765509  0.42720036  0.81209272  1
  Al  Al14  1  0.88922740  0.54401933  0.56750964  1
  Al  Al15  1  0.44351073  0.42760309  0.31526017  1
  Al  Al16  1  0.55256177  0.54047195  0.05230439  1
  Al  Al17  1  0.11211240  0.42893358  0.80150292  1
  Al  Al18  1  0.22656606  0.53428427  0.56523735  1
  Al  Al19  1  0.88562454  0.54728732  0.05212980  1
  Al  Al20  1  0.44239902  0.42652826  0.81080715  1
  Al  Al21  1  0.55046103  0.54167812  0.56713225  1
  Al  Al22  1  0.11088337  0.76175875  0.37574409  1
  Al  Al23  1  0.22296440  0.87284662  0.06500799  1
  Al  Al24  1  0.77576292  0.76404403  0.81108194  1
  Al  Al25  1  0.88179633  0.87537270  0.56330585  1
  Al  Al26  1  0.44127624  0.76349187  0.31208231  1
  Al  Al27  1  0.56055936  0.86917800  0.06212850  1
  Al  Al28  1  0.11109499  0.75857425  0.87590628  1
  Al  Al29  1  0.22703242  0.87276044  0.56281903  1
  Al  Al30  1  0.77889948  0.76456219  0.31127000  1
  Al  Al31  1  0.88076630  0.87674361  0.06491278  1
  Al  Al32  1  0.44308064  0.76341226  0.81134024  1
  Al  Al33  1  0.55691702  0.86993080  0.56090608  1
  Gd  Gd34  1  0.22243008  0.20848652  0.06447968  1
  Gd  Gd35  1  0.78084062  0.42627136  0.31157536  1
  N  N36  1  0.22168691  0.20525641  0.36504570  1
  N  N37  1  0.09382079  0.08298279  0.13033034  1
  N  N38  1  0.89125571  0.20105030  0.86339726  1
  N  N39  1  0.77522956  0.09325952  0.62445721  1
  N  N40  1  0.55883628  0.20633497  0.37294415  1
  N  N41  1  0.47588606  0.07917750  0.13176859  1
  N  N42  1  0.22219754  0.20510017  0.84428191  1
  N  N43  1  0.11292980  0.09196392  0.61711367  1
  N  N44  1  0.90153065  0.17529591  0.38345447  1
  N  N45  1  0.77705808  0.09740686  0.12113413  1
  N  N46  1  0.55422684  0.20519606  0.87174955  1
  N  N47  1  0.44742902  0.09258464  0.61424540  1
  N  N48  1  0.22807577  0.53406849  0.36972944  1
  N  N49  1  0.08974307  0.46005638  0.13505894  1
  N  N50  1  0.89112697  0.54011258  0.86318920  1
  N  N51  1  0.77806151  0.42695123  0.61727292  1
  N  N52  1  0.52870158  0.55315850  0.38150374  1
  N  N53  1  0.44692964  0.42718354  0.12348092  1
  N  N54  1  0.22401036  0.53177293  0.86748009  1
  N  N55  1  0.11245884  0.42692803  0.61513276  1
  N  N56  1  0.89927030  0.55748117  0.38479551  1
  N  N57  1  0.77843099  0.42751751  0.08946959  1
  N  N58  1  0.55154024  0.54037445  0.86464446  1
  N  N59  1  0.44597354  0.42439447  0.62276154  1
  N  N60  1  0.22850322  0.87213829  0.37219488  1
  N  N61  1  0.10800063  0.76433924  0.07999824  1
  N  N62  1  0.88132909  0.87557248  0.87265617  1
  N  N63  1  0.77454597  0.76446728  0.62459498  1
  N  N64  1  0.55771160  0.86806967  0.37233844  1
  N  N65  1  0.44573666  0.76039412  0.12061190  1
  N  N66  1  0.22463786  0.87608419  0.87149156  1
  N  N67  1  0.10992830  0.76178939  0.57885618  1
  N  N68  1  0.88206979  0.87544730  0.36983932  1
  N  N69  1  0.77645057  0.76001682  0.12102768  1
  N  N70  1  0.55407782  0.87374879  0.87166492  1
  N  N71  1  0.44489273  0.76297743  0.62407515  1
