# generated using pymatgen
data_GdAl17N18
_symmetry_space_group_name_H-M   'P 1'
_cell_length_a   9.53499934
_cell_length_b   9.53013287
_cell_length_c   10.19141776
_cell_angle_alpha   90.10686229
_cell_angle_beta   89.92592455
_cell_angle_gamma   60.05090184
_symmetry_Int_Tables_number   1
_chemical_formula_structural   GdAl17N18
_chemical_formula_sum   'Gd2 Al34 N36'
_cell_volume   802.42639018
_cell_formula_units_Z   2
loop_
 _symmetry_equiv_pos_site_id
 _symmetry_equiv_pos_as_xyz
  1  'x, y, z'
loop_
 _atom_site_type_symbol
 _atom_site_label
 _atom_site_symmetry_multiplicity
 _atom_site_fract_x
 _atom_site_fract_y
 _atom_site_fract_z
 _atom_site_occupancy
  Al  Al0  1  0.11305503  0.08751388  0.40689075  1
  Al  Al1  1  0.77223186  0.10092007  0.89647790  1
  Al  Al2  1  0.88754868  0.20308220  0.65571590  1
  Al  Al3  1  0.44760201  0.09266257  0.40692464  1
  Al  Al4  1  0.55863308  0.20505913  0.14684538  1
  Al  Al5  1  0.10916184  0.08923109  0.89189454  1
  Al  Al6  1  0.22238766  0.20473733  0.64661435  1
  Al  Al7  1  0.77667200  0.09630730  0.39457376  1
  Al  Al8  1  0.88839005  0.19668174  0.14291971  1
  Al  Al9  1  0.44839367  0.09317608  0.89206428  1
  Al  Al10  1  0.55714986  0.20628177  0.64729596  1
  Al  Al11  1  0.11453546  0.43265661  0.40734197  1
  Al  Al12  1  0.22110779  0.54371039  0.14771285  1
  Al  Al13  1  0.77660156  0.42663306  0.89850252  1
  Al  Al14  1  0.88923915  0.53911987  0.65856030  1
  Al  Al15  1  0.43938151  0.42983702  0.39674145  1
  Al  Al16  1  0.54735380  0.54280720  0.14197220  1
  Al  Al17  1  0.11153993  0.43247808  0.89165540  1
  Al  Al18  1  0.22388861  0.54023153  0.64760324  1
  Al  Al19  1  0.89163490  0.54257225  0.13614407  1
  Al  Al20  1  0.44290438  0.42696951  0.89784125  1
  Al  Al21  1  0.55331787  0.53999467  0.65533181  1
  Al  Al22  1  0.11952967  0.75721931  0.39463128  1
  Al  Al23  1  0.21963516  0.86941654  0.14784153  1
  Al  Al24  1  0.77513997  0.76260235  0.87015128  1
  Al  Al25  1  0.88677321  0.86758420  0.58018734  1
  Al  Al26  1  0.43904851  0.76567320  0.39662072  1
  Al  Al27  1  0.55224470  0.87334524  0.14162492  1
  Al  Al28  1  0.11893847  0.75676680  0.89601992  1
  Al  Al29  1  0.22336473  0.86889024  0.64759117  1
  Al  Al30  1  0.78143641  0.76767134  0.33691581  1
  Al  Al31  1  0.88866881  0.87278470  0.08011492  1
  Al  Al32  1  0.44149657  0.76280056  0.89798180  1
  Al  Al33  1  0.55640481  0.86982432  0.64872400  1
  Gd  Gd34  1  0.21880386  0.20754006  0.14809440  1
  Gd  Gd35  1  0.77726524  0.43189262  0.39498789  1
  N  N36  1  0.22179126  0.20577370  0.36973065  1
  N  N37  1  0.09835016  0.07708520  0.07538764  1
  N  N38  1  0.88695749  0.20469079  0.84154030  1
  N  N39  1  0.77542920  0.10033555  0.58704176  1
  N  N40  1  0.55426742  0.20604515  0.33813505  1
  N  N41  1  0.47027071  0.08312544  0.07705633  1
  N  N42  1  0.22166880  0.20514657  0.84131160  1
  N  N43  1  0.10863334  0.09230754  0.59542148  1
  N  N44  1  0.90588691  0.17699191  0.32866790  1
  N  N45  1  0.77114446  0.10114925  0.08660989  1
  N  N46  1  0.55497696  0.20788344  0.83464783  1
  N  N47  1  0.44817542  0.09213278  0.59427693  1
  N  N48  1  0.22344513  0.53652643  0.33782746  1
  N  N49  1  0.10156716  0.45641715  0.07374693  1
  N  N50  1  0.88871758  0.53661713  0.84652780  1
  N  N51  1  0.77790497  0.42715672  0.61488248  1
  N  N52  1  0.52399186  0.55534722  0.32700937  1
  N  N53  1  0.44212537  0.42593597  0.08636616  1
  N  N54  1  0.22520870  0.53918267  0.83412987  1
  N  N55  1  0.10924302  0.43079163  0.59591519  1
  N  N56  1  0.91270317  0.54605624  0.32330684  1
  N  N57  1  0.77771936  0.42680764  0.09351003  1
  N  N58  1  0.55239910  0.54014612  0.84448834  1
  N  N59  1  0.44584305  0.42789602  0.58712638  1
  N  N60  1  0.22264093  0.87451809  0.33772615  1
  N  N61  1  0.11785787  0.75757357  0.08901701  1
  N  N62  1  0.89003714  0.87206428  0.88375838  1
  N  N63  1  0.77823721  0.75831911  0.61831670  1
  N  N64  1  0.55091174  0.87541028  0.33499903  1
  N  N65  1  0.44047437  0.76485752  0.08565742  1
  N  N66  1  0.22422926  0.86861985  0.83424741  1
  N  N67  1  0.11808403  0.75714954  0.58590421  1
  N  N68  1  0.89102179  0.87158794  0.38126448  1
  N  N69  1  0.77355979  0.76485849  0.10980284  1
  N  N70  1  0.55030965  0.87232303  0.83840642  1
  N  N71  1  0.44565296  0.75954222  0.58712518  1
