# generated using pymatgen
data_GdAl17N18
_symmetry_space_group_name_H-M   'P 1'
_cell_length_a   9.51616784
_cell_length_b   9.59155923
_cell_length_c   10.42255122
_cell_angle_alpha   90.01120831
_cell_angle_beta   90.16689792
_cell_angle_gamma   59.74967298
_symmetry_Int_Tables_number   1
_chemical_formula_structural   GdAl17N18
_chemical_formula_sum   'Gd2 Al34 N36'
_cell_volume   821.77445234
_cell_formula_units_Z   2
loop_
 _symmetry_equiv_pos_site_id
 _symmetry_equiv_pos_as_xyz
  1  'x, y, z'
loop_
 _atom_site_type_symbol
 _atom_site_label
 _atom_site_symmetry_multiplicity
 _atom_site_fract_x
 _atom_site_fract_y
 _atom_site_fract_z
 _atom_site_occupancy
  Al  Al0  1  0.11954386  0.08420906  0.40490417  1
  Al  Al1  1  0.78067346  0.08975317  0.81520956  1
  Al  Al2  1  0.88626614  0.20175968  0.57693469  1
  Al  Al3  1  0.44116827  0.09603245  0.40412129  1
  Al  Al4  1  0.56634382  0.20424576  0.06207993  1
  Al  Al5  1  0.11379748  0.08754611  0.88207944  1
  Al  Al6  1  0.22309408  0.20501026  0.64615677  1
  Al  Al7  1  0.77683833  0.09060175  0.32035607  1
  Al  Al8  1  0.87933561  0.20403784  0.05342236  1
  Al  Al9  1  0.44695223  0.09329236  0.87941289  1
  Al  Al10  1  0.56217442  0.20228558  0.58290414  1
  Al  Al11  1  0.12013628  0.42953291  0.40499225  1
  Al  Al12  1  0.22300639  0.54311532  0.13824090  1
  Al  Al13  1  0.77811201  0.42732971  0.81272866  1
  Al  Al14  1  0.88666195  0.54500904  0.57703516  1
  Al  Al15  1  0.43308618  0.42970501  0.39766008  1
  Al  Al16  1  0.55755893  0.53941066  0.05353397  1
  Al  Al17  1  0.11369483  0.43176567  0.88171086  1
  Al  Al18  1  0.21945728  0.54325089  0.64367463  1
  Al  Al19  1  0.87962649  0.55010609  0.05341301  1
  Al  Al20  1  0.43795054  0.43062155  0.87599917  1
  Al  Al21  1  0.55345168  0.53979427  0.58087863  1
  Al  Al22  1  0.11661127  0.75812542  0.38553348  1
  Al  Al23  1  0.22316496  0.86735857  0.13822607  1
  Al  Al24  1  0.78143772  0.76273207  0.81508547  1
  Al  Al25  1  0.88537910  0.87383447  0.56409512  1
  Al  Al26  1  0.43304200  0.77078557  0.39642022  1
  Al  Al27  1  0.56559997  0.86227574  0.06121374  1
  Al  Al28  1  0.11478664  0.75939146  0.89502048  1
  Al  Al29  1  0.21794759  0.87107254  0.64303815  1
  Al  Al30  1  0.77683261  0.76577006  0.32027323  1
  Al  Al31  1  0.88248423  0.87541936  0.07312381  1
  Al  Al32  1  0.43964896  0.76375209  0.86728789  1
  Al  Al33  1  0.56243442  0.86860192  0.58320159  1
  Gd  Gd34  1  0.21973982  0.20674906  0.14110001  1
  Gd  Gd35  1  0.77875791  0.42747048  0.31669203  1
  N  N36  1  0.21843338  0.20743437  0.35886720  1
  N  N37  1  0.10430558  0.07415434  0.06498787  1
  N  N38  1  0.88206976  0.20742748  0.86715424  1
  N  N39  1  0.78287101  0.08704066  0.63323928  1
  N  N40  1  0.55993153  0.20316386  0.38620857  1
  N  N41  1  0.46788756  0.08252043  0.06870524  1
  N  N42  1  0.22088305  0.20604210  0.83302238  1
  N  N43  1  0.11813506  0.08976665  0.59104383  1
  N  N44  1  0.89448187  0.17978720  0.39375876  1
  N  N45  1  0.77792954  0.09717526  0.13249597  1
  N  N46  1  0.56162914  0.20533004  0.86771116  1
  N  N47  1  0.44406074  0.09454587  0.59486469  1
  N  N48  1  0.22183309  0.53643022  0.32632575  1
  N  N49  1  0.10470210  0.45469771  0.06472657  1
  N  N50  1  0.88200792  0.54372839  0.86704422  1
  N  N51  1  0.77978834  0.42666337  0.62611529  1
  N  N52  1  0.53173753  0.55125893  0.39194609  1
  N  N53  1  0.43981481  0.43095763  0.07204411  1
  N  N54  1  0.21732010  0.54622281  0.82553500  1
  N  N55  1  0.11845787  0.42522476  0.59138031  1
  N  N56  1  0.89505381  0.55898068  0.39378324  1
  N  N57  1  0.78090430  0.42641988  0.09873658  1
  N  N58  1  0.55643319  0.53816743  0.86265413  1
  N  N59  1  0.43862994  0.42754653  0.59164326  1
  N  N60  1  0.22111928  0.87548079  0.32693298  1
  N  N61  1  0.11562253  0.75892042  0.08238607  1
  N  N62  1  0.88212075  0.87574194  0.88502444  1
  N  N63  1  0.78321022  0.76309851  0.63325046  1
  N  N64  1  0.56004292  0.86983709  0.38735120  1
  N  N65  1  0.43979765  0.76326519  0.07413104  1
  N  N66  1  0.21651134  0.87016686  0.82490758  1
  N  N67  1  0.11802758  0.75724484  0.57350065  1
  N  N68  1  0.88350816  0.87484932  0.37665565  1
  N  N69  1  0.77756752  0.75852020  0.13226260  1
  N  N70  1  0.56204671  0.86645098  0.86702413  1
  N  N71  1  0.43954708  0.76629574  0.59601000  1
