# generated using pymatgen
data_GdAl17N18
_symmetry_space_group_name_H-M   'P 1'
_cell_length_a   9.53495664
_cell_length_b   9.51551595
_cell_length_c   10.30281321
_cell_angle_alpha   90.16040480
_cell_angle_beta   89.59730544
_cell_angle_gamma   60.05116418
_symmetry_Int_Tables_number   1
_chemical_formula_structural   GdAl17N18
_chemical_formula_sum   'Gd2 Al34 N36'
_cell_volume   809.91410189
_cell_formula_units_Z   2
loop_
 _symmetry_equiv_pos_site_id
 _symmetry_equiv_pos_as_xyz
  1  'x, y, z'
loop_
 _atom_site_type_symbol
 _atom_site_label
 _atom_site_symmetry_multiplicity
 _atom_site_fract_x
 _atom_site_fract_y
 _atom_site_fract_z
 _atom_site_occupancy
  Al  Al0  1  0.10862041  0.09057988  0.32097340  1
  Al  Al1  1  0.77607499  0.09158431  0.81020892  1
  Al  Al2  1  0.88825102  0.20041494  0.56509820  1
  Al  Al3  1  0.45521890  0.08861860  0.31626930  1
  Al  Al4  1  0.56092856  0.20507654  0.06298133  1
  Al  Al5  1  0.10405110  0.09999930  0.80065103  1
  Al  Al6  1  0.22851247  0.19533692  0.56572942  1
  Al  Al7  1  0.78136099  0.08843505  0.30977452  1
  Al  Al8  1  0.88417967  0.20301243  0.05017664  1
  Al  Al9  1  0.44660062  0.09360004  0.80288586  1
  Al  Al10  1  0.55816439  0.20523247  0.55987806  1
  Al  Al11  1  0.11992916  0.43097711  0.38182807  1
  Al  Al12  1  0.21284545  0.54751086  0.13325543  1
  Al  Al13  1  0.77252441  0.42899425  0.80944636  1
  Al  Al14  1  0.88344162  0.54582897  0.56954675  1
  Al  Al15  1  0.44836492  0.42514806  0.31207754  1
  Al  Al16  1  0.54946471  0.54234414  0.05127140  1
  Al  Al17  1  0.10603651  0.43189758  0.82258122  1
  Al  Al18  1  0.22160211  0.54447200  0.62790181  1
  Al  Al19  1  0.88250883  0.54810246  0.04322390  1
  Al  Al20  1  0.44788018  0.42427771  0.80975052  1
  Al  Al21  1  0.55226274  0.53981901  0.56296147  1
  Al  Al22  1  0.11801318  0.75789452  0.38271098  1
  Al  Al23  1  0.21575189  0.86712597  0.13545841  1
  Al  Al24  1  0.77361734  0.76845365  0.80848856  1
  Al  Al25  1  0.88098903  0.87649947  0.55888563  1
  Al  Al26  1  0.44900817  0.75935486  0.31370522  1
  Al  Al27  1  0.56193472  0.86862058  0.06330327  1
  Al  Al28  1  0.11623706  0.75942960  0.88222734  1
  Al  Al29  1  0.22115397  0.86637015  0.62685665  1
  Al  Al30  1  0.78320177  0.76304589  0.30940985  1
  Al  Al31  1  0.88203717  0.87538780  0.06191833  1
  Al  Al32  1  0.44736726  0.76180127  0.81071030  1
  Al  Al33  1  0.55829031  0.86904898  0.55908416  1
  Gd  Gd34  1  0.22687027  0.20001808  0.06282678  1
  Gd  Gd35  1  0.78597443  0.42532386  0.30366634  1
  N  N36  1  0.22742543  0.19905881  0.37110294  1
  N  N37  1  0.08386107  0.09265237  0.13368726  1
  N  N38  1  0.88706700  0.20382426  0.86298449  1
  N  N39  1  0.77592270  0.09244330  0.62459893  1
  N  N40  1  0.55892407  0.20622762  0.37360166  1
  N  N41  1  0.47947777  0.07813333  0.13427875  1
  N  N42  1  0.22029655  0.20636329  0.84030880  1
  N  N43  1  0.10859035  0.09527802  0.61454111  1
  N  N44  1  0.89867142  0.17845693  0.38463621  1
  N  N45  1  0.77787365  0.09636914  0.12078436  1
  N  N46  1  0.55253218  0.20592858  0.87254458  1
  N  N47  1  0.45030737  0.09052293  0.61629340  1
  N  N48  1  0.22073256  0.54146076  0.32307521  1
  N  N49  1  0.09503388  0.45641355  0.08272169  1
  N  N50  1  0.88070491  0.54558731  0.85439514  1
  N  N51  1  0.77663178  0.42684162  0.61805446  1
  N  N52  1  0.53313430  0.54966490  0.38013205  1
  N  N53  1  0.44963253  0.42643236  0.12131452  1
  N  N54  1  0.21685111  0.54645385  0.81489252  1
  N  N55  1  0.11509600  0.42572475  0.59213357  1
  N  N56  1  0.89773849  0.55811839  0.38625165  1
  N  N57  1  0.77514530  0.43044884  0.08471579  1
  N  N58  1  0.54859672  0.54221050  0.86553312  1
  N  N59  1  0.45190848  0.42209405  0.62153653  1
  N  N60  1  0.22448255  0.86502369  0.32554332  1
  N  N61  1  0.11513312  0.76010585  0.06907361  1
  N  N62  1  0.88199674  0.87552861  0.87314633  1
  N  N63  1  0.77500130  0.76679352  0.62385978  1
  N  N64  1  0.56076046  0.86697320  0.37290364  1
  N  N65  1  0.44944315  0.75981150  0.12058199  1
  N  N66  1  0.21742645  0.87192962  0.81930569  1
  N  N67  1  0.11405820  0.75877903  0.56819054  1
  N  N68  1  0.88520633  0.87467942  0.36959485  1
  N  N69  1  0.77881229  0.75841602  0.12093262  1
  N  N70  1  0.55202424  0.87631495  0.87307773  1
  N  N71  1  0.45163751  0.75902561  0.62176465  1
