# generated using pymatgen
data_GdAl17N18
_symmetry_space_group_name_H-M   'P 1'
_cell_length_a   9.48857400
_cell_length_b   9.52066119
_cell_length_c   10.41797181
_cell_angle_alpha   90.00020654
_cell_angle_beta   89.70753251
_cell_angle_gamma   59.88167205
_symmetry_Int_Tables_number   1
_chemical_formula_structural   GdAl17N18
_chemical_formula_sum   'Gd2 Al34 N36'
_cell_volume   814.05778530
_cell_formula_units_Z   2
loop_
 _symmetry_equiv_pos_site_id
 _symmetry_equiv_pos_as_xyz
  1  'x, y, z'
loop_
 _atom_site_type_symbol
 _atom_site_label
 _atom_site_symmetry_multiplicity
 _atom_site_fract_x
 _atom_site_fract_y
 _atom_site_fract_z
 _atom_site_occupancy
  Al  Al0  1  0.12185632  0.08256209  0.40575979  1
  Al  Al1  1  0.78238053  0.08823472  0.81529080  1
  Al  Al2  1  0.88567283  0.20075534  0.57798180  1
  Al  Al3  1  0.44728466  0.09302623  0.39617247  1
  Al  Al4  1  0.55554896  0.20677206  0.13793941  1
  Al  Al5  1  0.11492978  0.08768321  0.87925636  1
  Al  Al6  1  0.22445727  0.20443726  0.64339409  1
  Al  Al7  1  0.78620975  0.08577847  0.31973129  1
  Al  Al8  1  0.87717988  0.20439836  0.05148411  1
  Al  Al9  1  0.45218985  0.09057411  0.88637689  1
  Al  Al10  1  0.54963668  0.20788255  0.63927205  1
  Al  Al11  1  0.12186025  0.42892088  0.40575957  1
  Al  Al12  1  0.21823277  0.54449115  0.13820747  1
  Al  Al13  1  0.77796205  0.42768786  0.81506023  1
  Al  Al14  1  0.88567489  0.54690025  0.57798150  1
  Al  Al15  1  0.44004242  0.42702601  0.38850192  1
  Al  Al16  1  0.55040826  0.54145862  0.09390985  1
  Al  Al17  1  0.11493245  0.43072555  0.87925564  1
  Al  Al18  1  0.22204658  0.54235493  0.64124633  1
  Al  Al19  1  0.87718276  0.55174866  0.05148343  1
  Al  Al20  1  0.44204333  0.42544240  0.88395243  1
  Al  Al21  1  0.54982484  0.54174978  0.62108003  1
  Al  Al22  1  0.11931762  0.75701120  0.38662063  1
  Al  Al23  1  0.21822990  0.87060744  0.13820730  1
  Al  Al24  1  0.78238120  0.76272217  0.81529147  1
  Al  Al25  1  0.88367098  0.87483004  0.56473116  1
  Al  Al26  1  0.44004334  0.76626020  0.38850048  1
  Al  Al27  1  0.55555048  0.87100866  0.13793811  1
  Al  Al28  1  0.11753382  0.75790265  0.89163059  1
  Al  Al29  1  0.22204574  0.86893020  0.64124630  1
  Al  Al30  1  0.78621423  0.76134954  0.31973157  1
  Al  Al31  1  0.88216753  0.87558134  0.06990418  1
  Al  Al32  1  0.44204249  0.76585128  0.88395169  1
  Al  Al33  1  0.54963720  0.87580885  0.63927239  1
  Gd  Gd34  1  0.21860590  0.20735959  0.13962443  1
  Gd  Gd35  1  0.78895403  0.42219381  0.31837717  1
  N  N36  1  0.21745605  0.20793494  0.35747785  1
  N  N37  1  0.10337440  0.07607358  0.06253324  1
  N  N38  1  0.88105393  0.20748720  0.86706528  1
  N  N39  1  0.78246590  0.08687616  0.63247284  1
  N  N40  1  0.54813208  0.20777436  0.32637616  1
  N  N41  1  0.47668390  0.07832762  0.06708141  1
  N  N42  1  0.22395390  0.20468582  0.83205285  1
  N  N43  1  0.11917084  0.08888505  0.59195757  1
  N  N44  1  0.89640044  0.17644425  0.39708701  1
  N  N45  1  0.78574210  0.09266489  0.13286016  1
  N  N46  1  0.54865589  0.20932917  0.82425481  1
  N  N47  1  0.44778855  0.09277414  0.58023269  1
  N  N48  1  0.22066440  0.53670299  0.32501150  1
  N  N49  1  0.10337689  0.45389174  0.06253282  1
  N  N50  1  0.88105528  0.54478351  0.86706667  1
  N  N51  1  0.78133250  0.42600562  0.62623032  1
  N  N52  1  0.52831433  0.55250699  0.34147500  1
  N  N53  1  0.44175773  0.42398627  0.07160116  1
  N  N54  1  0.22183158  0.54329447  0.82406881  1
  N  N55  1  0.11917244  0.42528692  0.59195906  1
  N  N56  1  0.89639954  0.56048501  0.39708704  1
  N  N57  1  0.77886943  0.42723681  0.09776375  1
  N  N58  1  0.54852582  0.54239987  0.83770053  1
  N  N59  1  0.44341379  0.42495257  0.57669840  1
  N  N60  1  0.22066511  0.87596218  0.32501062  1
  N  N61  1  0.11709743  0.75812344  0.07854658  1
  N  N62  1  0.88221389  0.87555574  0.88418138  1
  N  N63  1  0.78246503  0.76400110  0.63247342  1
  N  N64  1  0.54813301  0.87741323  0.32637524  1
  N  N65  1  0.44175506  0.76760164  0.07160276  1
  N  N66  1  0.22183227  0.86820173  0.82406857  1
  N  N67  1  0.11894245  0.75720107  0.57398739  1
  N  N68  1  0.88476667  0.87427897  0.37944883  1
  N  N69  1  0.78574228  0.75493376  0.13286137  1
  N  N70  1  0.54865628  0.87533710  0.82425510  1
  N  N71  1  0.44341302  0.76497466  0.57669752  1
