# generated using pymatgen
data_GdAl17N18
_symmetry_space_group_name_H-M   'P 1'
_cell_length_a   9.50929047
_cell_length_b   9.57148277
_cell_length_c   10.43410532
_cell_angle_alpha   90.02304972
_cell_angle_beta   90.16995321
_cell_angle_gamma   59.76831762
_symmetry_Int_Tables_number   1
_chemical_formula_structural   GdAl17N18
_chemical_formula_sum   'Gd2 Al34 N36'
_cell_volume   820.52588732
_cell_formula_units_Z   2
loop_
 _symmetry_equiv_pos_site_id
 _symmetry_equiv_pos_as_xyz
  1  'x, y, z'
loop_
 _atom_site_type_symbol
 _atom_site_label
 _atom_site_symmetry_multiplicity
 _atom_site_fract_x
 _atom_site_fract_y
 _atom_site_fract_z
 _atom_site_occupancy
  Al  Al0  1  0.11897863  0.08492980  0.40542802  1
  Al  Al1  1  0.78085794  0.08962753  0.81533705  1
  Al  Al2  1  0.88548049  0.20261726  0.57705769  1
  Al  Al3  1  0.44048340  0.09669971  0.40491494  1
  Al  Al4  1  0.56633570  0.20452564  0.06219789  1
  Al  Al5  1  0.11503584  0.08615138  0.88261756  1
  Al  Al6  1  0.22346762  0.20480284  0.64658296  1
  Al  Al7  1  0.77666351  0.09083144  0.32021379  1
  Al  Al8  1  0.87891725  0.20476364  0.05307454  1
  Al  Al9  1  0.44734379  0.09203072  0.88080168  1
  Al  Al10  1  0.56219005  0.20213191  0.58366477  1
  Al  Al11  1  0.12007713  0.42941679  0.40492530  1
  Al  Al12  1  0.22351904  0.54295517  0.13811713  1
  Al  Al13  1  0.77851580  0.42684742  0.81391460  1
  Al  Al14  1  0.88650789  0.54465167  0.57739594  1
  Al  Al15  1  0.43246755  0.43096014  0.39918438  1
  Al  Al16  1  0.55447824  0.54626066  0.05372534  1
  Al  Al17  1  0.11418284  0.43150018  0.88198260  1
  Al  Al18  1  0.21975233  0.54278785  0.64416532  1
  Al  Al19  1  0.87974378  0.55011464  0.05349874  1
  Al  Al20  1  0.43815009  0.43138555  0.87757807  1
  Al  Al21  1  0.55217725  0.54321869  0.58009116  1
  Al  Al22  1  0.11587231  0.75828795  0.38627644  1
  Al  Al23  1  0.21940075  0.86924800  0.13852856  1
  Al  Al24  1  0.78113213  0.76286522  0.81582337  1
  Al  Al25  1  0.88446308  0.87384499  0.56444136  1
  Al  Al26  1  0.43955239  0.76760167  0.34773902  1
  Al  Al27  1  0.56308851  0.85989546  0.06185622  1
  Al  Al28  1  0.11571915  0.75948839  0.89530587  1
  Al  Al29  1  0.21374105  0.87274675  0.64233537  1
  Al  Al30  1  0.77770086  0.76507079  0.31966865  1
  Al  Al31  1  0.88186437  0.87543347  0.07273342  1
  Al  Al32  1  0.44846986  0.75925256  0.81819715  1
  Al  Al33  1  0.56107404  0.86583573  0.58032618  1
  Gd  Gd34  1  0.22033058  0.20644938  0.14110322  1
  Gd  Gd35  1  0.77712269  0.42795926  0.31577268  1
  N  N36  1  0.21864020  0.20717810  0.35868709  1
  N  N37  1  0.10427303  0.07449772  0.06481509  1
  N  N38  1  0.88258044  0.20693602  0.86721328  1
  N  N39  1  0.78301484  0.08698731  0.63343060  1
  N  N40  1  0.55971952  0.20373830  0.38639237  1
  N  N41  1  0.46847684  0.08176289  0.06885211  1
  N  N42  1  0.22149938  0.20543828  0.83295307  1
  N  N43  1  0.11810343  0.08999908  0.59046407  1
  N  N44  1  0.89339677  0.18127204  0.39399596  1
  N  N45  1  0.77804819  0.09732760  0.13270663  1
  N  N46  1  0.56156294  0.20528788  0.86759193  1
  N  N47  1  0.44440758  0.09324401  0.59439977  1
  N  N48  1  0.22195201  0.53672761  0.32643217  1
  N  N49  1  0.10503954  0.45453640  0.06474149  1
  N  N50  1  0.88272622  0.54342868  0.86703502  1
  N  N51  1  0.77916082  0.42685067  0.62686303  1
  N  N52  1  0.52903962  0.55683711  0.39641327  1
  N  N53  1  0.44013846  0.43190422  0.07203086  1
  N  N54  1  0.21785125  0.54598656  0.82558793  1
  N  N55  1  0.11853396  0.42506391  0.59109308  1
  N  N56  1  0.89474119  0.55818871  0.39370685  1
  N  N57  1  0.78070208  0.42673024  0.09825031  1
  N  N58  1  0.55586302  0.54102814  0.86638977  1
  N  N59  1  0.43890992  0.42792434  0.59168812  1
  N  N60  1  0.21470714  0.87868714  0.32771695  1
  N  N61  1  0.11537539  0.75883072  0.08208353  1
  N  N62  1  0.88216906  0.87559592  0.88506302  1
  N  N63  1  0.78196598  0.76342387  0.63343612  1
  N  N64  1  0.55859481  0.86823029  0.38931965  1
  N  N65  1  0.44779081  0.75934000  0.11571273  1
  N  N66  1  0.21584827  0.87020981  0.82559649  1
  N  N67  1  0.11766812  0.75679374  0.57325785  1
  N  N68  1  0.88252329  0.87509587  0.37730281  1
  N  N69  1  0.77754248  0.75885618  0.13239920  1
  N  N70  1  0.56115349  0.86334019  0.87151704  1
  N  N71  1  0.44664241  0.76184265  0.62947425  1
