# generated using pymatgen
data_GdAl17N18
_symmetry_space_group_name_H-M   'P 1'
_cell_length_a   9.54539365
_cell_length_b   9.54173028
_cell_length_c   10.26935450
_cell_angle_alpha   90.28320004
_cell_angle_beta   89.52310230
_cell_angle_gamma   60.08443983
_symmetry_Int_Tables_number   1
_chemical_formula_structural   GdAl17N18
_chemical_formula_sum   'Gd2 Al34 N36'
_cell_volume   810.63379912
_cell_formula_units_Z   2
loop_
 _symmetry_equiv_pos_site_id
 _symmetry_equiv_pos_as_xyz
  1  'x, y, z'
loop_
 _atom_site_type_symbol
 _atom_site_label
 _atom_site_symmetry_multiplicity
 _atom_site_fract_x
 _atom_site_fract_y
 _atom_site_fract_z
 _atom_site_occupancy
  Al  Al0  1  0.12090252  0.07895998  0.38237117  1
  Al  Al1  1  0.77440096  0.09136397  0.80798877  1
  Al  Al2  1  0.88406780  0.20185674  0.56962065  1
  Al  Al3  1  0.46049517  0.08499007  0.31640831  1
  Al  Al4  1  0.56061153  0.20401279  0.06150331  1
  Al  Al5  1  0.10819023  0.09803368  0.83019134  1
  Al  Al6  1  0.23175489  0.20165268  0.57748587  1
  Al  Al7  1  0.78317692  0.08625615  0.30874865  1
  Al  Al8  1  0.87951714  0.20403845  0.04229649  1
  Al  Al9  1  0.44464839  0.09531026  0.80915814  1
  Al  Al10  1  0.55781767  0.20543331  0.56019937  1
  Al  Al11  1  0.12117555  0.43117899  0.38824098  1
  Al  Al12  1  0.21257645  0.54949667  0.12728455  1
  Al  Al13  1  0.77223755  0.43177974  0.80507990  1
  Al  Al14  1  0.88501598  0.54523300  0.56791200  1
  Al  Al15  1  0.44632856  0.42426786  0.30928829  1
  Al  Al16  1  0.54933863  0.54229499  0.05098491  1
  Al  Al17  1  0.11013666  0.43800573  0.86805193  1
  Al  Al18  1  0.21875589  0.54339137  0.63142168  1
  Al  Al19  1  0.87344697  0.55376410  0.04186501  1
  Al  Al20  1  0.44867843  0.42466915  0.80982770  1
  Al  Al21  1  0.54969593  0.54054376  0.56134542  1
  Al  Al22  1  0.11803478  0.75481618  0.37926991  1
  Al  Al23  1  0.21265689  0.87264862  0.13302706  1
  Al  Al24  1  0.77475405  0.76771667  0.80715938  1
  Al  Al25  1  0.88205735  0.87502321  0.55714119  1
  Al  Al26  1  0.44892672  0.75821315  0.31137230  1
  Al  Al27  1  0.56025244  0.86882990  0.06170243  1
  Al  Al28  1  0.11581815  0.76181018  0.88234040  1
  Al  Al29  1  0.22126472  0.86583242  0.62842933  1
  Al  Al30  1  0.78274442  0.76089234  0.30855733  1
  Al  Al31  1  0.88219259  0.87641371  0.06174631  1
  Al  Al32  1  0.44853514  0.76164063  0.80993894  1
  Al  Al33  1  0.55826095  0.86886583  0.56010210  1
  Gd  Gd34  1  0.21815490  0.20831955  0.09437481  1
  Gd  Gd35  1  0.78608638  0.41925981  0.30573711  1
  N  N36  1  0.23049739  0.19929041  0.36309488  1
  N  N37  1  0.09016034  0.08054519  0.08314369  1
  N  N38  1  0.88083780  0.20830676  0.85329502  1
  N  N39  1  0.77539492  0.09039774  0.62297151  1
  N  N40  1  0.55966301  0.20593111  0.37293072  1
  N  N41  1  0.48148605  0.07576778  0.13250409  1
  N  N42  1  0.22111649  0.20942831  0.84885505  1
  N  N43  1  0.11545694  0.09074492  0.59280706  1
  N  N44  1  0.89941691  0.17430121  0.38625965  1
  N  N45  1  0.77674046  0.09785818  0.12033179  1
  N  N46  1  0.55328478  0.20658630  0.87209288  1
  N  N47  1  0.45211847  0.09013061  0.61955193  1
  N  N48  1  0.21771974  0.53957468  0.31559473  1
  N  N49  1  0.09368730  0.46705614  0.05451958  1
  N  N50  1  0.87844124  0.54712599  0.85293810  1
  N  N51  1  0.77562458  0.42832017  0.61410423  1
  N  N52  1  0.52972846  0.54966812  0.37802753  1
  N  N53  1  0.44902798  0.42544696  0.11835366  1
  N  N54  1  0.21750987  0.54798516  0.81633642  1
  N  N55  1  0.11789205  0.42776105  0.57747191  1
  N  N56  1  0.89746669  0.55504477  0.38109754  1
  N  N57  1  0.77606259  0.42904538  0.08587876  1
  N  N58  1  0.54914850  0.54307314  0.86478987  1
  N  N59  1  0.45107329  0.42212176  0.62149086  1
  N  N60  1  0.22184005  0.86782431  0.32317131  1
  N  N61  1  0.11487176  0.76079170  0.06956994  1
  N  N62  1  0.88208247  0.87644270  0.87216476  1
  N  N63  1  0.77603880  0.76581087  0.62173553  1
  N  N64  1  0.56026537  0.86590069  0.37323469  1
  N  N65  1  0.44937964  0.75884001  0.12027529  1
  N  N66  1  0.21720671  0.87251657  0.81575917  1
  N  N67  1  0.11558764  0.75688694  0.56634417  1
  N  N68  1  0.88542451  0.87253346  0.36752057  1
  N  N69  1  0.77745952  0.75993732  0.12057376  1
  N  N70  1  0.55301912  0.87556405  0.87194487  1
  N  N71  1  0.45196752  0.75835161  0.62090964  1
