# generated using pymatgen
data_GdAl17N18
_symmetry_space_group_name_H-M   'P 1'
_cell_length_a   9.52743180
_cell_length_b   9.52099033
_cell_length_c   10.22984010
_cell_angle_alpha   90.08431827
_cell_angle_beta   89.89317730
_cell_angle_gamma   60.09029076
_symmetry_Int_Tables_number   1
_chemical_formula_structural   GdAl17N18
_chemical_formula_sum   'Gd2 Al34 N36'
_cell_volume   804.35810790
_cell_formula_units_Z   2
loop_
 _symmetry_equiv_pos_site_id
 _symmetry_equiv_pos_as_xyz
  1  'x, y, z'
loop_
 _atom_site_type_symbol
 _atom_site_label
 _atom_site_symmetry_multiplicity
 _atom_site_fract_x
 _atom_site_fract_y
 _atom_site_fract_z
 _atom_site_occupancy
  Al  Al0  1  0.11306104  0.08721208  0.40693480  1
  Al  Al1  1  0.77193392  0.10158153  0.89693683  1
  Al  Al2  1  0.88760926  0.20282507  0.65602655  1
  Al  Al3  1  0.44774672  0.09205049  0.40674963  1
  Al  Al4  1  0.55887175  0.20491335  0.14691537  1
  Al  Al5  1  0.10923498  0.08945344  0.89218941  1
  Al  Al6  1  0.22265810  0.20450686  0.64703623  1
  Al  Al7  1  0.77655690  0.09545878  0.39521621  1
  Al  Al8  1  0.88849146  0.19607525  0.14305131  1
  Al  Al9  1  0.44836440  0.09298647  0.89266761  1
  Al  Al10  1  0.55715441  0.20655688  0.64762430  1
  Al  Al11  1  0.11465998  0.43203333  0.40739690  1
  Al  Al12  1  0.22083171  0.54414788  0.14788627  1
  Al  Al13  1  0.77670115  0.42750109  0.89918968  1
  Al  Al14  1  0.89251043  0.53360220  0.65854063  1
  Al  Al15  1  0.43928900  0.42979498  0.39666037  1
  Al  Al16  1  0.54711680  0.54296295  0.14224263  1
  Al  Al17  1  0.11113266  0.43272956  0.89234074  1
  Al  Al18  1  0.22435177  0.54009827  0.64805696  1
  Al  Al19  1  0.89174531  0.54240729  0.13672932  1
  Al  Al20  1  0.44291917  0.42702186  0.89806738  1
  Al  Al21  1  0.55335720  0.53986645  0.65557905  1
  Al  Al22  1  0.11906081  0.75682530  0.39544581  1
  Al  Al23  1  0.21910272  0.86949880  0.14797649  1
  Al  Al24  1  0.77841789  0.76553437  0.83679455  1
  Al  Al25  1  0.88690182  0.86749399  0.57929987  1
  Al  Al26  1  0.43880650  0.76592146  0.39621355  1
  Al  Al27  1  0.55133410  0.87408631  0.14212185  1
  Al  Al28  1  0.11929934  0.75663242  0.89660819  1
  Al  Al29  1  0.22313492  0.86883421  0.64808701  1
  Al  Al30  1  0.78314669  0.76897545  0.32186154  1
  Al  Al31  1  0.88681621  0.87146229  0.07670579  1
  Al  Al32  1  0.44212684  0.76297168  0.89830609  1
  Al  Al33  1  0.55189479  0.87222153  0.64854507  1
  Gd  Gd34  1  0.21858158  0.20792184  0.14897212  1
  Gd  Gd35  1  0.77683696  0.43111792  0.39445720  1
  N  N36  1  0.22198412  0.20531515  0.36986195  1
  N  N37  1  0.09852064  0.07735576  0.07525422  1
  N  N38  1  0.88688519  0.20511140  0.84136155  1
  N  N39  1  0.77528227  0.10051376  0.58736677  1
  N  N40  1  0.55446089  0.20584544  0.33792772  1
  N  N41  1  0.46992326  0.08331746  0.07698195  1
  N  N42  1  0.22167689  0.20540196  0.84108148  1
  N  N43  1  0.10869306  0.09221634  0.59530102  1
  N  N44  1  0.90598945  0.17566628  0.32831699  1
  N  N45  1  0.77119071  0.10087599  0.08605399  1
  N  N46  1  0.55493284  0.20787415  0.83450182  1
  N  N47  1  0.44816978  0.09259869  0.59372024  1
  N  N48  1  0.22333952  0.53643720  0.33770792  1
  N  N49  1  0.10116049  0.45679060  0.07382674  1
  N  N50  1  0.88946453  0.53583821  0.84626438  1
  N  N51  1  0.77781741  0.42719157  0.61390577  1
  N  N52  1  0.52348429  0.55559293  0.32657639  1
  N  N53  1  0.44197730  0.42599699  0.08619599  1
  N  N54  1  0.22517156  0.53920297  0.83409698  1
  N  N55  1  0.11018115  0.43033351  0.59552369  1
  N  N56  1  0.91323439  0.54416096  0.32541941  1
  N  N57  1  0.77753736  0.42718039  0.09357313  1
  N  N58  1  0.55260563  0.54016582  0.84421521  1
  N  N59  1  0.44597786  0.42790041  0.58692760  1
  N  N60  1  0.22195818  0.87418834  0.33763230  1
  N  N61  1  0.11711737  0.75794074  0.08864729  1
  N  N62  1  0.88939079  0.87174696  0.88506343  1
  N  N63  1  0.78053517  0.76094670  0.63868942  1
  N  N64  1  0.55008033  0.87559061  0.33671115  1
  N  N65  1  0.44060089  0.76487073  0.08554017  1
  N  N66  1  0.22428831  0.86866174  0.83425647  1
  N  N67  1  0.11839542  0.75680142  0.58633143  1
  N  N68  1  0.88936359  0.86957876  0.38647418  1
  N  N69  1  0.77537478  0.76776758  0.12867219  1
  N  N70  1  0.54860634  0.87360738  0.83793205  1
  N  N71  1  0.44578711  0.75917847  0.58665438  1
