# generated using pymatgen
data_GdAl17N18
_symmetry_space_group_name_H-M   'P 1'
_cell_length_a   9.55636496
_cell_length_b   9.54067856
_cell_length_c   10.27039165
_cell_angle_alpha   89.69369538
_cell_angle_beta   89.24178179
_cell_angle_gamma   59.97159160
_symmetry_Int_Tables_number   1
_chemical_formula_structural   GdAl17N18
_chemical_formula_sum   'Gd2 Al34 N36'
_cell_volume   810.63758338
_cell_formula_units_Z   2
loop_
 _symmetry_equiv_pos_site_id
 _symmetry_equiv_pos_as_xyz
  1  'x, y, z'
loop_
 _atom_site_type_symbol
 _atom_site_label
 _atom_site_symmetry_multiplicity
 _atom_site_fract_x
 _atom_site_fract_y
 _atom_site_fract_z
 _atom_site_occupancy
  Al  Al0  1  0.11845113  0.08488865  0.41541505  1
  Al  Al1  1  0.77821630  0.08677733  0.83088591  1
  Al  Al2  1  0.89252353  0.20798113  0.64436627  1
  Al  Al3  1  0.45047957  0.09171970  0.40782727  1
  Al  Al4  1  0.55022774  0.20738428  0.14697203  1
  Al  Al5  1  0.11501532  0.08645448  0.88925981  1
  Al  Al6  1  0.22751741  0.20393659  0.65306853  1
  Al  Al7  1  0.78670286  0.08498052  0.32486310  1
  Al  Al8  1  0.88106813  0.19970372  0.09083667  1
  Al  Al9  1  0.44990518  0.09035354  0.89723611  1
  Al  Al10  1  0.55170358  0.21012400  0.64855661  1
  Al  Al11  1  0.12644838  0.42724378  0.41669018  1
  Al  Al12  1  0.21713510  0.54377966  0.15013672  1
  Al  Al13  1  0.76827951  0.43255294  0.88462598  1
  Al  Al14  1  0.88996916  0.54832238  0.59078990  1
  Al  Al15  1  0.43938605  0.42935101  0.39689835  1
  Al  Al16  1  0.53934220  0.54552532  0.14239770  1
  Al  Al17  1  0.11483513  0.43019590  0.89069952  1
  Al  Al18  1  0.22516826  0.54254273  0.65153752  1
  Al  Al19  1  0.87902156  0.55246470  0.07066330  1
  Al  Al20  1  0.44160676  0.42722200  0.89859440  1
  Al  Al21  1  0.55540283  0.53995316  0.64993713  1
  Al  Al22  1  0.11779039  0.75865283  0.39703825  1
  Al  Al23  1  0.21678660  0.86929379  0.15009693  1
  Al  Al24  1  0.78114652  0.76190167  0.82723373  1
  Al  Al25  1  0.88396478  0.87816332  0.57659533  1
  Al  Al26  1  0.43914294  0.76489724  0.39718665  1
  Al  Al27  1  0.55349641  0.87069275  0.14943013  1
  Al  Al28  1  0.11795532  0.75719463  0.90134985  1
  Al  Al29  1  0.22515430  0.86621243  0.65030843  1
  Al  Al30  1  0.78735671  0.76223412  0.33145693  1
  Al  Al31  1  0.88183293  0.87253345  0.07890199  1
  Al  Al32  1  0.44205962  0.76332428  0.89835886  1
  Al  Al33  1  0.55123521  0.87342784  0.64891081  1
  Gd  Gd34  1  0.21356013  0.20537514  0.15341891  1
  Gd  Gd35  1  0.78002762  0.42695094  0.36953935  1
  N  N36  1  0.22421505  0.20517808  0.37302898  1
  N  N37  1  0.10024357  0.07370982  0.07145896  1
  N  N38  1  0.88634539  0.20671664  0.85603410  1
  N  N39  1  0.78266872  0.09031779  0.64218002  1
  N  N40  1  0.55052881  0.20841431  0.33837555  1
  N  N41  1  0.46950682  0.07957798  0.08063493  1
  N  N42  1  0.22418228  0.20388633  0.84426539  1
  N  N43  1  0.11723442  0.09002537  0.60396373  1
  N  N44  1  0.91301576  0.17125740  0.35810192  1
  N  N45  1  0.77639517  0.08884849  0.13403426  1
  N  N46  1  0.54792226  0.21037475  0.83785225  1
  N  N47  1  0.45073467  0.09227790  0.59397270  1
  N  N48  1  0.22235789  0.53758681  0.33807362  1
  N  N49  1  0.10264071  0.45236937  0.07766683  1
  N  N50  1  0.88195091  0.54554761  0.88144615  1
  N  N51  1  0.77897476  0.43004877  0.60855379  1
  N  N52  1  0.51814510  0.55753974  0.32573760  1
  N  N53  1  0.43942775  0.42638897  0.08543190  1
  N  N54  1  0.22387034  0.54187781  0.83696165  1
  N  N55  1  0.12141410  0.42571087  0.60570091  1
  N  N56  1  0.90632343  0.56081211  0.40384686  1
  N  N57  1  0.76909305  0.42960552  0.09358963  1
  N  N58  1  0.54830528  0.54193703  0.83936601  1
  N  N59  1  0.44686442  0.42877991  0.58671410  1
  N  N60  1  0.22333134  0.87453536  0.33862276  1
  N  N61  1  0.11436838  0.75814643  0.09106213  1
  N  N62  1  0.88452175  0.87214207  0.89208707  1
  N  N63  1  0.78238515  0.76557290  0.64233920  1
  N  N64  1  0.55095499  0.87458102  0.34034104  1
  N  N65  1  0.44018314  0.76569191  0.08569745  1
  N  N66  1  0.22443690  0.86612562  0.83546050  1
  N  N67  1  0.11777591  0.75855259  0.58655168  1
  N  N68  1  0.88503728  0.87611705  0.38942096  1
  N  N69  1  0.78214174  0.75729512  0.14314641  1
  N  N70  1  0.54887773  0.87324347  0.83721996  1
  N  N71  1  0.44663312  0.75994245  0.58665251  1
