# generated using pymatgen
data_GdAl17N18
_symmetry_space_group_name_H-M   'P 1'
_cell_length_a   9.52423906
_cell_length_b   9.50589850
_cell_length_c   10.31517383
_cell_angle_alpha   90.06642981
_cell_angle_beta   89.64487696
_cell_angle_gamma   60.04200747
_symmetry_Int_Tables_number   1
_chemical_formula_structural   GdAl17N18
_chemical_formula_sum   'Gd2 Al34 N36'
_cell_volume   809.09728532
_cell_formula_units_Z   2
loop_
 _symmetry_equiv_pos_site_id
 _symmetry_equiv_pos_as_xyz
  1  'x, y, z'
loop_
 _atom_site_type_symbol
 _atom_site_label
 _atom_site_symmetry_multiplicity
 _atom_site_fract_x
 _atom_site_fract_y
 _atom_site_fract_z
 _atom_site_occupancy
  Al  Al0  1  0.10884837  0.09068706  0.32013132  1
  Al  Al1  1  0.77602022  0.09177986  0.80980058  1
  Al  Al2  1  0.88872359  0.20076592  0.56530380  1
  Al  Al3  1  0.45430905  0.08931772  0.31608043  1
  Al  Al4  1  0.56133115  0.20423757  0.06238577  1
  Al  Al5  1  0.10479269  0.10021010  0.80050359  1
  Al  Al6  1  0.22415947  0.20321614  0.56017839  1
  Al  Al7  1  0.78174430  0.08790273  0.31020789  1
  Al  Al8  1  0.88465320  0.20246898  0.04991422  1
  Al  Al9  1  0.44583487  0.09381410  0.80225952  1
  Al  Al10  1  0.55771955  0.20537532  0.55982615  1
  Al  Al11  1  0.11047825  0.43257639  0.32413421  1
  Al  Al12  1  0.21590520  0.55020743  0.13562534  1
  Al  Al13  1  0.77442267  0.42918703  0.81075404  1
  Al  Al14  1  0.88845542  0.54362153  0.56620212  1
  Al  Al15  1  0.44915928  0.42497719  0.31404006  1
  Al  Al16  1  0.55031441  0.54174641  0.05076949  1
  Al  Al17  1  0.10517571  0.42803888  0.79966659  1
  Al  Al18  1  0.22131190  0.54404558  0.62601559  1
  Al  Al19  1  0.88560640  0.54603120  0.04891702  1
  Al  Al20  1  0.44735691  0.42440031  0.80990843  1
  Al  Al21  1  0.55288628  0.54010283  0.56404467  1
  Al  Al22  1  0.11850920  0.75776558  0.38450307  1
  Al  Al23  1  0.21624560  0.86628202  0.13500500  1
  Al  Al24  1  0.77573765  0.76603981  0.80958511  1
  Al  Al25  1  0.88080468  0.87623939  0.55964439  1
  Al  Al26  1  0.44879489  0.75967600  0.31392851  1
  Al  Al27  1  0.56181734  0.86811964  0.06243388  1
  Al  Al28  1  0.11652296  0.75822533  0.88091522  1
  Al  Al29  1  0.22106054  0.86751731  0.62720884  1
  Al  Al30  1  0.78258413  0.76369391  0.31012455  1
  Al  Al31  1  0.88139234  0.87609071  0.06118125  1
  Al  Al32  1  0.44759899  0.76157465  0.81043645  1
  Al  Al33  1  0.55782456  0.86964726  0.55971839  1
  Gd  Gd34  1  0.22532913  0.20345350  0.06173919  1
  Gd  Gd35  1  0.78385815  0.42565537  0.30460899  1
  N  N36  1  0.22477163  0.20327824  0.36807365  1
  N  N37  1  0.08634660  0.09186785  0.13185345  1
  N  N38  1  0.88746427  0.20354298  0.86314534  1
  N  N39  1  0.77584784  0.09266565  0.62448648  1
  N  N40  1  0.55960858  0.20558381  0.37336534  1
  N  N41  1  0.47745295  0.07826420  0.13344580  1
  N  N42  1  0.22026687  0.20660260  0.84368988  1
  N  N43  1  0.10949839  0.09663437  0.61400958  1
  N  N44  1  0.89910913  0.17815279  0.38445653  1
  N  N45  1  0.77823880  0.09595787  0.12112988  1
  N  N46  1  0.55285370  0.20540963  0.87249686  1
  N  N47  1  0.44782293  0.09241626  0.61525528  1
  N  N48  1  0.22439526  0.54362332  0.32569239  1
  N  N49  1  0.08739141  0.45399410  0.13107987  1
  N  N50  1  0.88733337  0.54241273  0.86178321  1
  N  N51  1  0.77757574  0.42759287  0.61870219  1
  N  N52  1  0.53328790  0.55026497  0.38125571  1
  N  N53  1  0.44996340  0.42548837  0.12105645  1
  N  N54  1  0.21723836  0.54413517  0.81797193  1
  N  N55  1  0.11039867  0.42569791  0.61241094  1
  N  N56  1  0.89963457  0.55680711  0.38547322  1
  N  N57  1  0.77568547  0.42933483  0.08581454  1
  N  N58  1  0.54966780  0.54177007  0.86552361  1
  N  N59  1  0.45164675  0.42234128  0.62157030  1
  N  N60  1  0.22413153  0.86536882  0.32484957  1
  N  N61  1  0.11469586  0.75896451  0.06799834  1
  N  N62  1  0.88204366  0.87573703  0.87306369  1
  N  N63  1  0.77572564  0.76506972  0.62449586  1
  N  N64  1  0.56021186  0.86765869  0.37314757  1
  N  N65  1  0.44995082  0.75873250  0.12066162  1
  N  N66  1  0.21749024  0.87188035  0.81931881  1
  N  N67  1  0.11377271  0.75970299  0.56939479  1
  N  N68  1  0.88539289  0.87435422  0.37035855  1
  N  N69  1  0.77882641  0.75902269  0.12094533  1
  N  N70  1  0.55291379  0.87543359  0.87267635  1
  N  N71  1  0.45145994  0.75927443  0.62199663  1
