# generated using pymatgen
data_GdAl17N18
_symmetry_space_group_name_H-M   'P 1'
_cell_length_a   9.53479532
_cell_length_b   9.53077193
_cell_length_c   10.18504466
_cell_angle_alpha   90.10137648
_cell_angle_beta   89.92695313
_cell_angle_gamma   60.03503672
_symmetry_Int_Tables_number   1
_chemical_formula_structural   GdAl17N18
_chemical_formula_sum   'Gd2 Al34 N36'
_cell_volume   801.83353208
_cell_formula_units_Z   2
loop_
 _symmetry_equiv_pos_site_id
 _symmetry_equiv_pos_as_xyz
  1  'x, y, z'
loop_
 _atom_site_type_symbol
 _atom_site_label
 _atom_site_symmetry_multiplicity
 _atom_site_fract_x
 _atom_site_fract_y
 _atom_site_fract_z
 _atom_site_occupancy
  Al  Al0  1  0.11305422  0.08752194  0.40684404  1
  Al  Al1  1  0.77251902  0.10041845  0.89618255  1
  Al  Al2  1  0.88754268  0.20330301  0.65575731  1
  Al  Al3  1  0.44741080  0.09304024  0.40680598  1
  Al  Al4  1  0.55858788  0.20502063  0.14674177  1
  Al  Al5  1  0.10915001  0.08918505  0.89183888  1
  Al  Al6  1  0.22230312  0.20482617  0.64662386  1
  Al  Al7  1  0.77672238  0.09640679  0.39425413  1
  Al  Al8  1  0.88835579  0.19684183  0.14273456  1
  Al  Al9  1  0.44879518  0.09279781  0.89179660  1
  Al  Al10  1  0.55702000  0.20636025  0.64732395  1
  Al  Al11  1  0.11452312  0.43279047  0.40710687  1
  Al  Al12  1  0.22107476  0.54362706  0.14757755  1
  Al  Al13  1  0.77674233  0.42678738  0.89818792  1
  Al  Al14  1  0.88826335  0.54060365  0.65822524  1
  Al  Al15  1  0.43936175  0.42983740  0.39672487  1
  Al  Al16  1  0.54743060  0.54282209  0.14179129  1
  Al  Al17  1  0.11117636  0.43282064  0.89140339  1
  Al  Al18  1  0.22391602  0.54012334  0.64759988  1
  Al  Al19  1  0.89089079  0.54404830  0.13658313  1
  Al  Al20  1  0.44291450  0.42696473  0.89780617  1
  Al  Al21  1  0.55329756  0.53999937  0.65530072  1
  Al  Al22  1  0.11959165  0.75734758  0.39429750  1
  Al  Al23  1  0.21984584  0.86936886  0.14767766  1
  Al  Al24  1  0.77389960  0.76161474  0.88562303  1
  Al  Al25  1  0.88748546  0.86837728  0.58133681  1
  Al  Al26  1  0.43897880  0.76551217  0.39661320  1
  Al  Al27  1  0.55404791  0.87238077  0.14205223  1
  Al  Al28  1  0.11850638  0.75700800  0.89569874  1
  Al  Al29  1  0.22354132  0.86892492  0.64760016  1
  Al  Al30  1  0.78015369  0.76588496  0.35609232  1
  Al  Al31  1  0.88903914  0.87297870  0.08138467  1
  Al  Al32  1  0.44171564  0.76287858  0.89775720  1
  Al  Al33  1  0.55742743  0.86920500  0.64859940  1
  Gd  Gd34  1  0.21889399  0.20740224  0.14766166  1
  Gd  Gd35  1  0.77737158  0.43165212  0.39485598  1
  N  N36  1  0.22163514  0.20591403  0.36953408  1
  N  N37  1  0.09831496  0.07701510  0.07536830  1
  N  N38  1  0.88695987  0.20478165  0.84157857  1
  N  N39  1  0.77538245  0.10046141  0.58703157  1
  N  N40  1  0.55420692  0.20612612  0.33814338  1
  N  N41  1  0.47058571  0.08272084  0.07713048  1
  N  N42  1  0.22171591  0.20511825  0.84137356  1
  N  N43  1  0.10861737  0.09233819  0.59538331  1
  N  N44  1  0.90592071  0.17716127  0.32861908  1
  N  N45  1  0.77119115  0.10104986  0.08664813  1
  N  N46  1  0.55496925  0.20794639  0.83465146  1
  N  N47  1  0.44822293  0.09203334  0.59421341  1
  N  N48  1  0.22343738  0.53655403  0.33778755  1
  N  N49  1  0.10128744  0.45650226  0.07379887  1
  N  N50  1  0.88807577  0.53798701  0.84536954  1
  N  N51  1  0.77783501  0.42718455  0.61480684  1
  N  N52  1  0.52408572  0.55523685  0.32703847  1
  N  N53  1  0.44214067  0.42591794  0.08640104  1
  N  N54  1  0.22527120  0.53915553  0.83411913  1
  N  N55  1  0.10896943  0.43100556  0.59576383  1
  N  N56  1  0.91173186  0.54770616  0.32278324  1
  N  N57  1  0.77789848  0.42683139  0.09356188  1
  N  N58  1  0.55238528  0.54014269  0.84450410  1
  N  N59  1  0.44581308  0.42790405  0.58710020  1
  N  N60  1  0.22280836  0.87458604  0.33767518  1
  N  N61  1  0.11791164  0.75754160  0.08902197  1
  N  N62  1  0.89008618  0.87203602  0.88207074  1
  N  N63  1  0.77703519  0.75696566  0.60467162  1
  N  N64  1  0.55175953  0.87499289  0.33455200  1
  N  N65  1  0.44062612  0.76501231  0.08571428  1
  N  N66  1  0.22438370  0.86861445  0.83424615  1
  N  N67  1  0.11819883  0.75713485  0.58587076  1
  N  N68  1  0.89176583  0.87236535  0.37954791  1
  N  N69  1  0.77247479  0.76330603  0.09691878  1
  N  N70  1  0.55205302  0.87141962  0.83746733  1
  N  N71  1  0.44561061  0.75959518  0.58707272  1
