# generated using pymatgen
data_GdAl17N18
_symmetry_space_group_name_H-M   'P 1'
_cell_length_a   9.53001209
_cell_length_b   9.51090338
_cell_length_c   10.30413150
_cell_angle_alpha   90.09993023
_cell_angle_beta   89.61551876
_cell_angle_gamma   60.03644490
_symmetry_Int_Tables_number   1
_chemical_formula_structural   GdAl17N18
_chemical_formula_sum   'Gd2 Al34 N36'
_cell_volume   809.09464897
_cell_formula_units_Z   2
loop_
 _symmetry_equiv_pos_site_id
 _symmetry_equiv_pos_as_xyz
  1  'x, y, z'
loop_
 _atom_site_type_symbol
 _atom_site_label
 _atom_site_symmetry_multiplicity
 _atom_site_fract_x
 _atom_site_fract_y
 _atom_site_fract_z
 _atom_site_occupancy
  Al  Al0  1  0.10872866  0.09060213  0.32060286  1
  Al  Al1  1  0.77601031  0.09167653  0.80999833  1
  Al  Al2  1  0.88842468  0.20077144  0.56529052  1
  Al  Al3  1  0.45497064  0.08886977  0.31622749  1
  Al  Al4  1  0.56107309  0.20461369  0.06263462  1
  Al  Al5  1  0.10449746  0.09995595  0.80059765  1
  Al  Al6  1  0.22546992  0.20087096  0.56254060  1
  Al  Al7  1  0.78159503  0.08823230  0.31001168  1
  Al  Al8  1  0.88440470  0.20268112  0.04995540  1
  Al  Al9  1  0.44608708  0.09375450  0.80254409  1
  Al  Al10  1  0.55788619  0.20533502  0.55987357  1
  Al  Al11  1  0.11350149  0.43131972  0.33707017  1
  Al  Al12  1  0.21485419  0.54929147  0.13521619  1
  Al  Al13  1  0.77364525  0.42913802  0.81056244  1
  Al  Al14  1  0.88697262  0.54427117  0.56762108  1
  Al  Al15  1  0.44953785  0.42496177  0.31334662  1
  Al  Al16  1  0.54989429  0.54207334  0.05087044  1
  Al  Al17  1  0.10506488  0.42868769  0.80038436  1
  Al  Al18  1  0.22164596  0.54447836  0.62608418  1
  Al  Al19  1  0.88554799  0.54618891  0.04683875  1
  Al  Al20  1  0.44720819  0.42449048  0.80991127  1
  Al  Al21  1  0.55288661  0.53992433  0.56356024  1
  Al  Al22  1  0.11827147  0.75824826  0.38401671  1
  Al  Al23  1  0.21605112  0.86662426  0.13511341  1
  Al  Al24  1  0.77497071  0.76692430  0.80931210  1
  Al  Al25  1  0.88077056  0.87638301  0.55941093  1
  Al  Al26  1  0.44903182  0.75950861  0.31379181  1
  Al  Al27  1  0.56169107  0.86840171  0.06272180  1
  Al  Al28  1  0.11645827  0.75836807  0.88131651  1
  Al  Al29  1  0.22111274  0.86714891  0.62696185  1
  Al  Al30  1  0.78295745  0.76349131  0.30966847  1
  Al  Al31  1  0.88152270  0.87586913  0.06149980  1
  Al  Al32  1  0.44741534  0.76168019  0.81051540  1
  Al  Al33  1  0.55802759  0.86942899  0.55951543  1
  Gd  Gd34  1  0.22554604  0.20263218  0.06157472  1
  Gd  Gd35  1  0.78517254  0.42566661  0.30375394  1
  N  N36  1  0.22600505  0.20150658  0.37002279  1
  N  N37  1  0.08547574  0.09221824  0.13260171  1
  N  N38  1  0.88730296  0.20352723  0.86303848  1
  N  N39  1  0.77581617  0.09263738  0.62447849  1
  N  N40  1  0.55945472  0.20577729  0.37338521  1
  N  N41  1  0.47779917  0.07844044  0.13374531  1
  N  N42  1  0.21999901  0.20679315  0.84228228  1
  N  N43  1  0.10908750  0.09607320  0.61412497  1
  N  N44  1  0.89876645  0.17858214  0.38441026  1
  N  N45  1  0.77801490  0.09616402  0.12096605  1
  N  N46  1  0.55268345  0.20562115  0.87253171  1
  N  N47  1  0.44878539  0.09173476  0.61564126  1
  N  N48  1  0.22431672  0.54339866  0.32582351  1
  N  N49  1  0.08874954  0.45391594  0.12325097  1
  N  N50  1  0.88581803  0.54316961  0.85918877  1
  N  N51  1  0.77716468  0.42737952  0.61859563  1
  N  N52  1  0.53401597  0.54984611  0.38055034  1
  N  N53  1  0.44972305  0.42591748  0.12113038  1
  N  N54  1  0.21693134  0.54472427  0.81710047  1
  N  N55  1  0.11124517  0.42572457  0.60950338  1
  N  N56  1  0.89912176  0.55750616  0.38647709  1
  N  N57  1  0.77534783  0.42982067  0.08487459  1
  N  N58  1  0.54907590  0.54201162  0.86543293  1
  N  N59  1  0.45179471  0.42232006  0.62138886  1
  N  N60  1  0.22443475  0.86536641  0.32529749  1
  N  N61  1  0.11478020  0.75916956  0.06854324  1
  N  N62  1  0.88203236  0.87566121  0.87312039  1
  N  N63  1  0.77533530  0.76582823  0.62432054  1
  N  N64  1  0.56063371  0.86728763  0.37295444  1
  N  N65  1  0.44963698  0.75921175  0.12059083  1
  N  N66  1  0.21745936  0.87180516  0.81942231  1
  N  N67  1  0.11364607  0.75973099  0.56902644  1
  N  N68  1  0.88539473  0.87452861  0.36989857  1
  N  N69  1  0.77866748  0.75880874  0.12063459  1
  N  N70  1  0.55249009  0.87576991  0.87280108  1
  N  N71  1  0.45149553  0.75918510  0.62174561  1
