# generated using pymatgen
data_GdAl17N18
_symmetry_space_group_name_H-M   'P 1'
_cell_length_a   9.51997952
_cell_length_b   9.51472325
_cell_length_c   10.25803415
_cell_angle_alpha   89.91938198
_cell_angle_beta   89.76207555
_cell_angle_gamma   60.14229096
_symmetry_Int_Tables_number   1
_chemical_formula_structural   GdAl17N18
_chemical_formula_sum   'Gd2 Al34 N36'
_cell_volume   805.83104003
_cell_formula_units_Z   2
loop_
 _symmetry_equiv_pos_site_id
 _symmetry_equiv_pos_as_xyz
  1  'x, y, z'
loop_
 _atom_site_type_symbol
 _atom_site_label
 _atom_site_symmetry_multiplicity
 _atom_site_fract_x
 _atom_site_fract_y
 _atom_site_fract_z
 _atom_site_occupancy
  Al  Al0  1  0.11431155  0.08586375  0.40771308  1
  Al  Al1  1  0.77208764  0.10118159  0.89441726  1
  Al  Al2  1  0.88839421  0.20250305  0.65828316  1
  Al  Al3  1  0.44824689  0.09166735  0.40756572  1
  Al  Al4  1  0.55627012  0.20630290  0.14384382  1
  Al  Al5  1  0.11074068  0.08991385  0.89235183  1
  Al  Al6  1  0.22331513  0.20484590  0.64736561  1
  Al  Al7  1  0.77880972  0.09104484  0.37730505  1
  Al  Al8  1  0.88986563  0.19717539  0.13895774  1
  Al  Al9  1  0.44760989  0.09301946  0.89283224  1
  Al  Al10  1  0.55826145  0.20647689  0.64871246  1
  Al  Al11  1  0.11462580  0.43081337  0.40845058  1
  Al  Al12  1  0.21948867  0.54503120  0.14821720  1
  Al  Al13  1  0.77643352  0.42988679  0.89902181  1
  Al  Al14  1  0.89348832  0.53327080  0.65760875  1
  Al  Al15  1  0.43899512  0.42910638  0.39678069  1
  Al  Al16  1  0.54693881  0.54325775  0.14257819  1
  Al  Al17  1  0.11026803  0.43379867  0.89294352  1
  Al  Al18  1  0.22412460  0.54079410  0.64841577  1
  Al  Al19  1  0.89103750  0.54211926  0.13902198  1
  Al  Al20  1  0.44178256  0.42878178  0.89828526  1
  Al  Al21  1  0.55355220  0.53990200  0.65614319  1
  Al  Al22  1  0.11972138  0.75553838  0.39647775  1
  Al  Al23  1  0.21897643  0.86946068  0.14825488  1
  Al  Al24  1  0.77900529  0.76693368  0.83066407  1
  Al  Al25  1  0.88524187  0.87193706  0.57820871  1
  Al  Al26  1  0.43886184  0.76482049  0.39683884  1
  Al  Al27  1  0.55132670  0.87388582  0.14394861  1
  Al  Al28  1  0.11897615  0.75745256  0.89743923  1
  Al  Al29  1  0.22285003  0.86889152  0.64855223  1
  Al  Al30  1  0.78281529  0.76626919  0.32389111  1
  Al  Al31  1  0.88543661  0.87051100  0.07636811  1
  Al  Al32  1  0.44254105  0.76369825  0.89847496  1
  Al  Al33  1  0.55115636  0.87290809  0.64759767  1
  Gd  Gd34  1  0.21840241  0.20824828  0.15091563  1
  Gd  Gd35  1  0.77649625  0.42623936  0.39646586  1
  N  N36  1  0.22288511  0.20440927  0.37107800  1
  N  N37  1  0.10088970  0.07701382  0.07440551  1
  N  N38  1  0.88764331  0.20650790  0.84387490  1
  N  N39  1  0.77670104  0.09976044  0.59352967  1
  N  N40  1  0.55327811  0.20595158  0.33500039  1
  N  N41  1  0.46889226  0.08255851  0.07661516  1
  N  N42  1  0.22164448  0.20659444  0.84063798  1
  N  N43  1  0.10913294  0.09249114  0.59576734  1
  N  N44  1  0.91009871  0.17385768  0.32383137  1
  N  N45  1  0.77159594  0.09949204  0.08944334  1
  N  N46  1  0.55332988  0.20945516  0.83618094  1
  N  N47  1  0.44862564  0.09334204  0.59375748  1
  N  N48  1  0.22278282  0.53584445  0.33775250  1
  N  N49  1  0.09992553  0.45717912  0.07445784  1
  N  N50  1  0.88961412  0.53739934  0.84482328  1
  N  N51  1  0.77832912  0.42703645  0.61510445  1
  N  N52  1  0.52382090  0.55476519  0.32653886  1
  N  N53  1  0.44047570  0.42764383  0.08577807  1
  N  N54  1  0.22431364  0.54059230  0.83422959  1
  N  N55  1  0.11110699  0.43025868  0.59556600  1
  N  N56  1  0.91206788  0.54101720  0.32807048  1
  N  N57  1  0.77687457  0.42836208  0.09257170  1
  N  N58  1  0.55235514  0.54113324  0.84419105  1
  N  N59  1  0.44617630  0.42791861  0.58687029  1
  N  N60  1  0.22219338  0.87315462  0.33781344  1
  N  N61  1  0.11617222  0.75868647  0.08870812  1
  N  N62  1  0.88844164  0.87173240  0.88641460  1
  N  N63  1  0.78105591  0.76193733  0.63806608  1
  N  N64  1  0.54948838  0.87540917  0.33834543  1
  N  N65  1  0.44085162  0.76496357  0.08571002  1
  N  N66  1  0.22430909  0.86918571  0.83434351  1
  N  N67  1  0.11786433  0.75740235  0.58611239  1
  N  N68  1  0.88954199  0.86767722  0.38653789  1
  N  N69  1  0.77563239  0.76744973  0.13386889  1
  N  N70  1  0.54869172  0.87434267  0.83648558  1
  N  N71  1  0.44565981  0.75896981  0.58665667  1
