# generated using pymatgen
data_GdAl17N18
_symmetry_space_group_name_H-M   'P 1'
_cell_length_a   9.52126437
_cell_length_b   9.50673177
_cell_length_c   10.31303755
_cell_angle_alpha   89.92884661
_cell_angle_beta   89.57182532
_cell_angle_gamma   60.07912599
_symmetry_Int_Tables_number   1
_chemical_formula_structural   GdAl17N18
_chemical_formula_sum   'Gd2 Al34 N36'
_cell_volume   809.04914791
_cell_formula_units_Z   2
loop_
 _symmetry_equiv_pos_site_id
 _symmetry_equiv_pos_as_xyz
  1  'x, y, z'
loop_
 _atom_site_type_symbol
 _atom_site_label
 _atom_site_symmetry_multiplicity
 _atom_site_fract_x
 _atom_site_fract_y
 _atom_site_fract_z
 _atom_site_occupancy
  Al  Al0  1  0.11524785  0.08719591  0.40880269  1
  Al  Al1  1  0.77878664  0.08867292  0.83162310  1
  Al  Al2  1  0.89509293  0.20503892  0.65822935  1
  Al  Al3  1  0.44960841  0.09215883  0.40794495  1
  Al  Al4  1  0.55102989  0.20860528  0.14478038  1
  Al  Al5  1  0.11119001  0.08957360  0.89341015  1
  Al  Al6  1  0.22551521  0.20363675  0.64795859  1
  Al  Al7  1  0.78365312  0.08262467  0.32366426  1
  Al  Al8  1  0.89102168  0.19963211  0.13846836  1
  Al  Al9  1  0.44695107  0.09309971  0.89473502  1
  Al  Al10  1  0.55230187  0.20926630  0.64829626  1
  Al  Al11  1  0.11422742  0.43176253  0.40998533  1
  Al  Al12  1  0.21723267  0.54641636  0.14863256  1
  Al  Al13  1  0.77558574  0.42742221  0.89830571  1
  Al  Al14  1  0.89469287  0.53337308  0.65906966  1
  Al  Al15  1  0.43807661  0.43003959  0.39625498  1
  Al  Al16  1  0.54550629  0.54375655  0.14261053  1
  Al  Al17  1  0.11151495  0.43214000  0.89237415  1
  Al  Al18  1  0.22420602  0.54190245  0.64914701  1
  Al  Al19  1  0.88913826  0.54329529  0.13375623  1
  Al  Al20  1  0.44200600  0.42760242  0.89902269  1
  Al  Al21  1  0.55400217  0.53978241  0.65642503  1
  Al  Al22  1  0.11847993  0.75756626  0.39748989  1
  Al  Al23  1  0.21815256  0.86978748  0.14853032  1
  Al  Al24  1  0.77852402  0.76554087  0.83273079  1
  Al  Al25  1  0.88334860  0.87486865  0.57776703  1
  Al  Al26  1  0.43858582  0.76566876  0.39631609  1
  Al  Al27  1  0.55064122  0.87431140  0.14474592  1
  Al  Al28  1  0.11907094  0.75716851  0.89909919  1
  Al  Al29  1  0.22384418  0.86789397  0.64889365  1
  Al  Al30  1  0.78404638  0.76603150  0.32311701  1
  Al  Al31  1  0.88139016  0.87638975  0.07427060  1
  Al  Al32  1  0.44213461  0.76322472  0.89888501  1
  Al  Al33  1  0.55253221  0.87186360  0.64880645  1
  Gd  Gd34  1  0.21582305  0.20982668  0.15421088  1
  Gd  Gd35  1  0.77455567  0.42876086  0.39699624  1
  N  N36  1  0.22420956  0.20514734  0.37304299  1
  N  N37  1  0.10082308  0.07737728  0.07427323  1
  N  N38  1  0.89040316  0.20615737  0.84473476  1
  N  N39  1  0.78237628  0.08945675  0.63939970  1
  N  N40  1  0.54997099  0.20880067  0.33805542  1
  N  N41  1  0.46643713  0.08372975  0.07756728  1
  N  N42  1  0.22232019  0.20524286  0.84001549  1
  N  N43  1  0.11240433  0.09108631  0.59559476  1
  N  N44  1  0.91362242  0.17824117  0.32675812  1
  N  N45  1  0.77568454  0.08965709  0.13374572  1
  N  N46  1  0.54839618  0.21085616  0.83678897  1
  N  N47  1  0.45026668  0.09151172  0.59321893  1
  N  N48  1  0.22105332  0.53790656  0.33782298  1
  N  N49  1  0.10024180  0.45661858  0.07313531  1
  N  N50  1  0.88938610  0.53630354  0.84652030  1
  N  N51  1  0.77963663  0.42695309  0.61517482  1
  N  N52  1  0.52242365  0.55585309  0.32526460  1
  N  N53  1  0.43959509  0.42800320  0.08560546  1
  N  N54  1  0.22417728  0.54095973  0.83423536  1
  N  N55  1  0.11263710  0.42980379  0.59717307  1
  N  N56  1  0.91238097  0.54150923  0.32798029  1
  N  N57  1  0.77497657  0.42811261  0.09044522  1
  N  N58  1  0.55193602  0.54039856  0.84342552  1
  N  N59  1  0.44700532  0.42842885  0.58603493  1
  N  N60  1  0.22167637  0.87428693  0.33761585  1
  N  N61  1  0.11447482  0.75988787  0.08843420  1
  N  N62  1  0.88612745  0.87357042  0.88935422  1
  N  N63  1  0.78265670  0.76149427  0.64079688  1
  N  N64  1  0.54993819  0.87557673  0.33768217  1
  N  N65  1  0.44027608  0.76530109  0.08536303  1
  N  N66  1  0.22402406  0.86862939  0.83423797  1
  N  N67  1  0.11782227  0.75787535  0.58564232  1
  N  N68  1  0.88518361  0.87376092  0.39063122  1
  N  N69  1  0.77542787  0.76813812  0.13298057  1
  N  N70  1  0.54820476  0.87413631  0.83717923  1
  N  N71  1  0.44703049  0.75837350  0.58622697  1
