# generated using pymatgen
data_GdAl17N18
_symmetry_space_group_name_H-M   'P 1'
_cell_length_a   9.50897769
_cell_length_b   9.51311922
_cell_length_c   10.12980659
_cell_angle_alpha   90.00000078
_cell_angle_beta   89.92923603
_cell_angle_gamma   59.98559452
_symmetry_Int_Tables_number   1
_chemical_formula_structural   GdAl17N18
_chemical_formula_sum   'Gd2 Al34 N36'
_cell_volume   793.46002370
_cell_formula_units_Z   2
loop_
 _symmetry_equiv_pos_site_id
 _symmetry_equiv_pos_as_xyz
  1  'x, y, z'
loop_
 _atom_site_type_symbol
 _atom_site_label
 _atom_site_symmetry_multiplicity
 _atom_site_fract_x
 _atom_site_fract_y
 _atom_site_fract_z
 _atom_site_occupancy
  Al  Al0  1  0.11074024  0.08426012  0.31008525  1
  Al  Al1  1  0.77684969  0.09219750  0.80420685  1
  Al  Al2  1  0.89019539  0.19886340  0.56013073  1
  Al  Al3  1  0.45242456  0.09044318  0.31038089  1
  Al  Al4  1  0.56166200  0.20337462  0.05559186  1
  Al  Al5  1  0.11252307  0.09144255  0.79612543  1
  Al  Al6  1  0.22229269  0.20550912  0.55341008  1
  Al  Al7  1  0.77952636  0.08892614  0.30454971  1
  Al  Al8  1  0.88667278  0.20015083  0.04539087  1
  Al  Al9  1  0.44693572  0.09318760  0.79630057  1
  Al  Al10  1  0.55676452  0.20648205  0.55426412  1
  Al  Al11  1  0.11074025  0.43831054  0.31008525  1
  Al  Al12  1  0.21952368  0.54538042  0.05523491  1
  Al  Al13  1  0.77779773  0.42775659  0.80447685  1
  Al  Al14  1  0.89019538  0.54425215  0.56013073  1
  Al  Al15  1  0.43913485  0.43009503  0.30535925  1
  Al  Al16  1  0.55268492  0.54031300  0.04563968  1
  Al  Al17  1  0.11252308  0.42934528  0.79612543  1
  Al  Al18  1  0.22326821  0.54018784  0.55392511  1
  Al  Al19  1  0.88667278  0.54648733  0.04539087  1
  Al  Al20  1  0.44274965  0.42688691  0.80448251  1
  Al  Al21  1  0.54881371  0.54224860  0.55987384  1
  Al  Al22  1  0.11104313  0.76113389  0.30524026  1
  Al  Al23  1  0.21952368  0.86840682  0.05523490  1
  Al  Al24  1  0.77684969  0.76426375  0.80420685  1
  Al  Al25  1  0.88834089  0.87248503  0.55391784  1
  Al  Al26  1  0.43913484  0.76408102  0.30535925  1
  Al  Al27  1  0.56166202  0.86827430  0.05559186  1
  Al  Al28  1  0.11038353  0.76146369  0.80482664  1
  Al  Al29  1  0.22326821  0.86985487  0.55392511  1
  Al  Al30  1  0.77952637  0.76485843  0.30454971  1
  Al  Al31  1  0.88924457  0.87203320  0.05605628  1
  Al  Al32  1  0.44274965  0.76367436  0.80448251  1
  Al  Al33  1  0.55676452  0.87006436  0.55426411  1
  Gd  Gd34  1  0.22307789  0.20511652  0.05997297  1
  Gd  Gd35  1  0.77955271  0.42687911  0.30577563  1
  N  N36  1  0.22084900  0.20623097  0.35623967  1
  N  N37  1  0.09363379  0.07968900  0.12301897  1
  N  N38  1  0.89119799  0.20170427  0.85583594  1
  N  N39  1  0.77582796  0.09223404  0.61658879  1
  N  N40  1  0.55739706  0.20808356  0.36509929  1
  N  N41  1  0.47733250  0.07798921  0.12506595  1
  N  N42  1  0.22269399  0.20530846  0.83855998  1
  N  N43  1  0.11343940  0.09124628  0.60921850  1
  N  N44  1  0.90054193  0.17582848  0.37633404  1
  N  N45  1  0.77856978  0.09482725  0.11327373  1
  N  N46  1  0.55452417  0.20494944  0.86421656  1
  N  N47  1  0.44693457  0.09318817  0.60670227  1
  N  N48  1  0.22360195  0.54130100  0.36580193  1
  N  N49  1  0.09363378  0.45998814  0.12301897  1
  N  N50  1  0.89119800  0.54040867  0.85583594  1
  N  N51  1  0.77755699  0.42787696  0.60905412  1
  N  N52  1  0.52644084  0.55343504  0.37350136  1
  N  N53  1  0.44437599  0.42792013  0.11264781  1
  N  N54  1  0.22133575  0.53898703  0.86425592  1
  N  N55  1  0.11343939  0.42862524  0.60921851  1
  N  N56  1  0.90054194  0.55694052  0.37633404  1
  N  N57  1  0.77905707  0.42712693  0.08299831  1
  N  N58  1  0.55204555  0.54063269  0.85724752  1
  N  N59  1  0.44305354  0.42632490  0.61627013  1
  N  N60  1  0.22360194  0.86840797  0.36580193  1
  N  N61  1  0.11054285  0.76138404  0.11477234  1
  N  N62  1  0.88914670  0.87208213  0.86568757  1
  N  N63  1  0.77582796  0.76524893  0.61658879  1
  N  N64  1  0.55739706  0.86783031  0.36509928  1
  N  N65  1  0.44437600  0.76101478  0.11264781  1
  N  N66  1  0.22133575  0.87298816  0.86425592  1
  N  N67  1  0.11038024  0.76146534  0.61451587  1
  N  N68  1  0.88890982  0.87220056  0.36336178  1
  N  N69  1  0.77856979  0.75991391  0.11327373  1
  N  N70  1  0.55452418  0.87383733  0.86421656  1
  N  N71  1  0.44305354  0.76393248  0.61627013  1
