# generated using pymatgen
data_GdAl17N18
_symmetry_space_group_name_H-M   'P 1'
_cell_length_a   9.50898018
_cell_length_b   9.51312088
_cell_length_c   10.12980985
_cell_angle_alpha   90.00000092
_cell_angle_beta   89.92923451
_cell_angle_gamma   59.98559848
_symmetry_Int_Tables_number   1
_chemical_formula_structural   GdAl17N18
_chemical_formula_sum   'Gd2 Al34 N36'
_cell_volume   793.46065688
_cell_formula_units_Z   2
loop_
 _symmetry_equiv_pos_site_id
 _symmetry_equiv_pos_as_xyz
  1  'x, y, z'
loop_
 _atom_site_type_symbol
 _atom_site_label
 _atom_site_symmetry_multiplicity
 _atom_site_fract_x
 _atom_site_fract_y
 _atom_site_fract_z
 _atom_site_occupancy
  Al  Al0  1  0.11073727  0.08425961  0.31157404  1
  Al  Al1  1  0.77684655  0.09219715  0.80569774  1
  Al  Al2  1  0.89019229  0.19886327  0.56162059  1
  Al  Al3  1  0.45242155  0.09044277  0.31187088  1
  Al  Al4  1  0.56165912  0.20337420  0.05708257  1
  Al  Al5  1  0.11251990  0.09144217  0.79761588  1
  Al  Al6  1  0.22228937  0.20550887  0.55489875  1
  Al  Al7  1  0.77952325  0.08892569  0.30604092  1
  Al  Al8  1  0.88666970  0.20015017  0.04688062  1
  Al  Al9  1  0.44693258  0.09318726  0.79779109  1
  Al  Al10  1  0.55676138  0.20648170  0.55575544  1
  Al  Al11  1  0.11073728  0.43831019  0.31157404  1
  Al  Al12  1  0.21952077  0.54538025  0.05672567  1
  Al  Al13  1  0.77779430  0.42775639  0.80596724  1
  Al  Al14  1  0.89019228  0.54425155  0.56162060  1
  Al  Al15  1  0.43913158  0.43009447  0.30685036  1
  Al  Al16  1  0.55268150  0.54031280  0.04713053  1
  Al  Al17  1  0.11251990  0.42934501  0.79761589  1
  Al  Al18  1  0.22326498  0.54018736  0.55541643  1
  Al  Al19  1  0.88666970  0.54648724  0.04688062  1
  Al  Al20  1  0.44274660  0.42688677  0.80597348  1
  Al  Al21  1  0.54881086  0.54224811  0.56136310  1
  Al  Al22  1  0.11104005  0.76113351  0.30673154  1
  Al  Al23  1  0.21952077  0.86840607  0.05672567  1
  Al  Al24  1  0.77684656  0.76426341  0.80569774  1
  Al  Al25  1  0.88833779  0.87248466  0.55540922  1
  Al  Al26  1  0.43913156  0.76408104  0.30685036  1
  Al  Al27  1  0.56165914  0.86827377  0.05708257  1
  Al  Al28  1  0.11038047  0.76146330  0.80631771  1
  Al  Al29  1  0.22326498  0.86985475  0.55541643  1
  Al  Al30  1  0.77952326  0.76485816  0.30604092  1
  Al  Al31  1  0.88924155  0.87203279  0.05754657  1
  Al  Al32  1  0.44274660  0.76367374  0.80597348  1
  Al  Al33  1  0.55676138  0.87006402  0.55575543  1
  Gd  Gd34  1  0.22307537  0.20511586  0.06146191  1
  Gd  Gd35  1  0.77954976  0.42687867  0.30726403  1
  N  N36  1  0.22084587  0.20623062  0.35772815  1
  N  N37  1  0.09363082  0.07968888  0.12450764  1
  N  N38  1  0.89119489  0.20170392  0.85732548  1
  N  N39  1  0.77582495  0.09223386  0.61807943  1
  N  N40  1  0.55739391  0.20808308  0.36658997  1
  N  N41  1  0.47732937  0.07798886  0.12655559  1
  N  N42  1  0.22269080  0.20530814  0.84004919  1
  N  N43  1  0.11343617  0.09124628  0.61070876  1
  N  N44  1  0.90053897  0.17582865  0.37782345  1
  N  N45  1  0.77856684  0.09482695  0.11476390  1
  N  N46  1  0.55452096  0.20494913  0.86570670  1
  N  N47  1  0.44693106  0.09318801  0.60819242  1
  N  N48  1  0.22359871  0.54130038  0.36729259  1
  N  N49  1  0.09363082  0.45998739  0.12450764  1
  N  N50  1  0.89119489  0.54040830  0.85732548  1
  N  N51  1  0.77755372  0.42787668  0.61054383  1
  N  N52  1  0.52643827  0.55343441  0.37499070  1
  N  N53  1  0.44437297  0.42791962  0.11413820  1
  N  N54  1  0.22133269  0.53898658  0.86574615  1
  N  N55  1  0.11343617  0.42862463  0.61070877  1
  N  N56  1  0.90053897  0.55693949  0.37782345  1
  N  N57  1  0.77905417  0.42712646  0.08448652  1
  N  N58  1  0.55204237  0.54063237  0.85873806  1
  N  N59  1  0.44305057  0.42632473  0.61776075  1
  N  N60  1  0.22359870  0.86840800  0.36729259  1
  N  N61  1  0.11053980  0.76138365  0.11626279  1
  N  N62  1  0.88914354  0.87208179  0.86717780  1
  N  N63  1  0.77582494  0.76524830  0.61807943  1
  N  N64  1  0.55739391  0.86783011  0.36658996  1
  N  N65  1  0.44437298  0.76101447  0.11413819  1
  N  N66  1  0.22133269  0.87298783  0.86574615  1
  N  N67  1  0.11037716  0.76146496  0.61600663  1
  N  N68  1  0.88890672  0.87220019  0.36485257  1
  N  N69  1  0.77856686  0.75991330  0.11476390  1
  N  N70  1  0.55452097  0.87383703  0.86570670  1
  N  N71  1  0.44305057  0.76393179  0.61776075  1
