# generated using pymatgen
data_GdAl17N18
_symmetry_space_group_name_H-M   'P 1'
_cell_length_a   9.48131543
_cell_length_b   9.52173676
_cell_length_c   10.47595972
_cell_angle_alpha   89.95846518
_cell_angle_beta   89.97135766
_cell_angle_gamma   59.84211510
_symmetry_Int_Tables_number   1
_chemical_formula_structural   GdAl17N18
_chemical_formula_sum   'Gd2 Al34 N36'
_cell_volume   817.74134275
_cell_formula_units_Z   2
loop_
 _symmetry_equiv_pos_site_id
 _symmetry_equiv_pos_as_xyz
  1  'x, y, z'
loop_
 _atom_site_type_symbol
 _atom_site_label
 _atom_site_symmetry_multiplicity
 _atom_site_fract_x
 _atom_site_fract_y
 _atom_site_fract_z
 _atom_site_occupancy
  Al  Al0  1  0.12104744  0.08400562  0.40634890  1
  Al  Al1  1  0.78412253  0.08763231  0.81518157  1
  Al  Al2  1  0.88420528  0.20202140  0.57736485  1
  Al  Al3  1  0.44851070  0.09281087  0.39882072  1
  Al  Al4  1  0.55656264  0.20737917  0.13801041  1
  Al  Al5  1  0.11454810  0.08847282  0.88003725  1
  Al  Al6  1  0.22282214  0.20541606  0.64324636  1
  Al  Al7  1  0.78740816  0.08544000  0.31945247  1
  Al  Al8  1  0.87909965  0.20373715  0.05188966  1
  Al  Al9  1  0.45172801  0.09195835  0.88476519  1
  Al  Al10  1  0.54940564  0.20801216  0.64136414  1
  Al  Al11  1  0.12011573  0.42952801  0.40600017  1
  Al  Al12  1  0.22082376  0.54326956  0.13817593  1
  Al  Al13  1  0.77316888  0.42968222  0.81216023  1
  Al  Al14  1  0.88349234  0.54731289  0.57689031  1
  Al  Al15  1  0.43620342  0.42325085  0.39144069  1
  Al  Al16  1  0.55941146  0.53692221  0.05548813  1
  Al  Al17  1  0.11449041  0.42981163  0.87995211  1
  Al  Al18  1  0.22124673  0.54197508  0.64229166  1
  Al  Al19  1  0.87970412  0.54954448  0.05170454  1
  Al  Al20  1  0.44017324  0.42293879  0.88481184  1
  Al  Al21  1  0.55230393  0.53977503  0.57159358  1
  Al  Al22  1  0.11941885  0.75697506  0.38746179  1
  Al  Al23  1  0.22138529  0.86876013  0.13804058  1
  Al  Al24  1  0.78392355  0.76133822  0.81554691  1
  Al  Al25  1  0.88321005  0.87470278  0.56442858  1
  Al  Al26  1  0.43680115  0.77452243  0.39278607  1
  Al  Al27  1  0.55795019  0.87002543  0.12755816  1
  Al  Al28  1  0.11771167  0.75727573  0.89271015  1
  Al  Al29  1  0.22046980  0.86962589  0.64239130  1
  Al  Al30  1  0.78369014  0.76285836  0.31900384  1
  Al  Al31  1  0.88367862  0.87544401  0.07001142  1
  Al  Al32  1  0.43960856  0.76851778  0.88162533  1
  Al  Al33  1  0.54954198  0.87630373  0.64075978  1
  Gd  Gd34  1  0.22160949  0.20524792  0.14182625  1
  Gd  Gd35  1  0.78168904  0.42613039  0.31564746  1
  N  N36  1  0.21830988  0.20807794  0.35904189  1
  N  N37  1  0.10563415  0.07535146  0.06253825  1
  N  N38  1  0.88075585  0.20842666  0.86755348  1
  N  N39  1  0.78282047  0.08660020  0.63259730  1
  N  N40  1  0.54886283  0.20751309  0.32614771  1
  N  N41  1  0.47722305  0.08043598  0.06446243  1
  N  N42  1  0.22349895  0.20482036  0.83086809  1
  N  N43  1  0.11731651  0.08991454  0.59160149  1
  N  N44  1  0.89491109  0.18000456  0.39626585  1
  N  N45  1  0.78735419  0.09212211  0.13363857  1
  N  N46  1  0.55025892  0.20881868  0.82446312  1
  N  N47  1  0.44706067  0.09366217  0.58242215  1
  N  N48  1  0.22040905  0.53721006  0.32478826  1
  N  N49  1  0.10598434  0.45151565  0.06272250  1
  N  N50  1  0.88074842  0.54348091  0.86751327  1
  N  N51  1  0.77546484  0.42864425  0.62636067  1
  N  N52  1  0.53173583  0.55112942  0.38541131  1
  N  N53  1  0.44291586  0.42344351  0.07423263  1
  N  N54  1  0.22103019  0.54305805  0.82453391  1
  N  N55  1  0.11647568  0.42649689  0.59142030  1
  N  N56  1  0.89404093  0.55977991  0.39561658  1
  N  N57  1  0.78151475  0.42582453  0.09973568  1
  N  N58  1  0.55352164  0.53892786  0.86839031  1
  N  N59  1  0.43951322  0.42167105  0.57929295  1
  N  N60  1  0.22095918  0.87585184  0.32510802  1
  N  N61  1  0.11855111  0.75735708  0.07874017  1
  N  N62  1  0.88270991  0.87519479  0.88487256  1
  N  N63  1  0.78259044  0.76366335  0.63305349  1
  N  N64  1  0.54925528  0.87778345  0.32918213  1
  N  N65  1  0.44230153  0.76734530  0.07139991  1
  N  N66  1  0.21973662  0.86895329  0.82412817  1
  N  N67  1  0.11875336  0.75688284  0.57387848  1
  N  N68  1  0.88473891  0.87396057  0.37949935  1
  N  N69  1  0.78698762  0.75429244  0.13183665  1
  N  N70  1  0.55021423  0.87497571  0.82615284  1
  N  N71  1  0.43978051  0.77053771  0.58182317  1
