# generated using pymatgen
data_GdAl17N18
_symmetry_space_group_name_H-M   'P 1'
_cell_length_a   9.55381521
_cell_length_b   9.53673464
_cell_length_c   10.27629046
_cell_angle_alpha   89.67232551
_cell_angle_beta   89.26177559
_cell_angle_gamma   59.96727325
_symmetry_Int_Tables_number   1
_chemical_formula_structural   GdAl17N18
_chemical_formula_sum   'Gd2 Al34 N36'
_cell_volume   810.52053045
_cell_formula_units_Z   2
loop_
 _symmetry_equiv_pos_site_id
 _symmetry_equiv_pos_as_xyz
  1  'x, y, z'
loop_
 _atom_site_type_symbol
 _atom_site_label
 _atom_site_symmetry_multiplicity
 _atom_site_fract_x
 _atom_site_fract_y
 _atom_site_fract_z
 _atom_site_occupancy
  Al  Al0  1  0.11691794  0.08599884  0.41322545  1
  Al  Al1  1  0.77855800  0.08716086  0.83145714  1
  Al  Al2  1  0.89298328  0.20892762  0.65228872  1
  Al  Al3  1  0.45028675  0.09177662  0.40801321  1
  Al  Al4  1  0.54995559  0.20743558  0.14630676  1
  Al  Al5  1  0.11272537  0.08760740  0.89009305  1
  Al  Al6  1  0.22705636  0.20375177  0.65260107  1
  Al  Al7  1  0.78548482  0.08414987  0.32417089  1
  Al  Al8  1  0.88537523  0.19856204  0.11498351  1
  Al  Al9  1  0.44968005  0.09034461  0.89695081  1
  Al  Al10  1  0.55197114  0.20993992  0.64851238  1
  Al  Al11  1  0.12633307  0.42726514  0.41644061  1
  Al  Al12  1  0.21711835  0.54387307  0.14995555  1
  Al  Al13  1  0.76933285  0.42976918  0.88839186  1
  Al  Al14  1  0.89017500  0.54834108  0.59112606  1
  Al  Al15  1  0.43904412  0.42966790  0.39694391  1
  Al  Al16  1  0.53991838  0.54514422  0.14229968  1
  Al  Al17  1  0.11464109  0.43006404  0.89067311  1
  Al  Al18  1  0.22527430  0.54246115  0.65162152  1
  Al  Al19  1  0.87915543  0.55223253  0.07095076  1
  Al  Al20  1  0.44173056  0.42714761  0.89861226  1
  Al  Al21  1  0.55560602  0.53979903  0.65061195  1
  Al  Al22  1  0.11807820  0.75830785  0.39726207  1
  Al  Al23  1  0.21704104  0.86904496  0.14977101  1
  Al  Al24  1  0.78119327  0.76147587  0.82730963  1
  Al  Al25  1  0.88390738  0.87838647  0.57710564  1
  Al  Al26  1  0.43884081  0.76535340  0.39732178  1
  Al  Al27  1  0.55358182  0.87059666  0.14927593  1
  Al  Al28  1  0.11800542  0.75732610  0.90109088  1
  Al  Al29  1  0.22461291  0.86683029  0.64990851  1
  Al  Al30  1  0.78740463  0.76249176  0.33122526  1
  Al  Al31  1  0.88167896  0.87262010  0.07819570  1
  Al  Al32  1  0.44209340  0.76326961  0.89817482  1
  Al  Al33  1  0.55121060  0.87344664  0.64905512  1
  Gd  Gd34  1  0.21407825  0.20526714  0.15321208  1
  Gd  Gd35  1  0.77801747  0.42778876  0.37447516  1
  N  N36  1  0.22423870  0.20534845  0.37275111  1
  N  N37  1  0.09984875  0.07395753  0.07120894  1
  N  N38  1  0.88802799  0.20711139  0.84767715  1
  N  N39  1  0.78248182  0.09087968  0.64090578  1
  N  N40  1  0.55046196  0.20872365  0.33853863  1
  N  N41  1  0.46924061  0.07950997  0.08037606  1
  N  N42  1  0.22392463  0.20366454  0.84385631  1
  N  N43  1  0.11523828  0.09084742  0.60112789  1
  N  N44  1  0.91581401  0.17245684  0.33835140  1
  N  N45  1  0.77499197  0.08794338  0.13327888  1
  N  N46  1  0.54808717  0.21026827  0.83778322  1
  N  N47  1  0.45049355  0.09230428  0.59394023  1
  N  N48  1  0.22225037  0.53770897  0.33796883  1
  N  N49  1  0.10283246  0.45227217  0.07764425  1
  N  N50  1  0.88171309  0.54513651  0.88174152  1
  N  N51  1  0.77909149  0.42942825  0.60690306  1
  N  N52  1  0.51823081  0.55784842  0.32548508  1
  N  N53  1  0.43921781  0.42656618  0.08546635  1
  N  N54  1  0.22388068  0.54178424  0.83689155  1
  N  N55  1  0.12136831  0.42576329  0.60534420  1
  N  N56  1  0.90588453  0.56082000  0.40341313  1
  N  N57  1  0.76957545  0.42845998  0.09301859  1
  N  N58  1  0.54915519  0.54133546  0.83970908  1
  N  N59  1  0.44689340  0.42889158  0.58662837  1
  N  N60  1  0.22303685  0.87454838  0.33872166  1
  N  N61  1  0.11432339  0.75821489  0.09084754  1
  N  N62  1  0.88465546  0.87192675  0.89164208  1
  N  N63  1  0.78240442  0.76543585  0.64233676  1
  N  N64  1  0.55097701  0.87472472  0.34027132  1
  N  N65  1  0.44033062  0.76552037  0.08560966  1
  N  N66  1  0.22419078  0.86671631  0.83512683  1
  N  N67  1  0.11781496  0.75839794  0.58650972  1
  N  N68  1  0.88533061  0.87655876  0.38995551  1
  N  N69  1  0.78227292  0.75722383  0.14320992  1
  N  N70  1  0.54895720  0.87318268  0.83714385  1
  N  N71  1  0.44661815  0.75994066  0.58667940  1
