# generated using pymatgen
data_GdAl17N18
_symmetry_space_group_name_H-M   'P 1'
_cell_length_a   9.48868056
_cell_length_b   9.52320589
_cell_length_c   10.42327821
_cell_angle_alpha   89.99999344
_cell_angle_beta   89.72136557
_cell_angle_gamma   59.87948173
_symmetry_Int_Tables_number   1
_chemical_formula_structural   GdAl17N18
_chemical_formula_sum   'Gd2 Al34 N36'
_cell_volume   814.68252076
_cell_formula_units_Z   2
loop_
 _symmetry_equiv_pos_site_id
 _symmetry_equiv_pos_as_xyz
  1  'x, y, z'
loop_
 _atom_site_type_symbol
 _atom_site_label
 _atom_site_symmetry_multiplicity
 _atom_site_fract_x
 _atom_site_fract_y
 _atom_site_fract_z
 _atom_site_occupancy
  Al  Al0  1  0.12243130  0.08166974  0.40713014  1
  Al  Al1  1  0.77801220  0.09102264  0.81711569  1
  Al  Al2  1  0.88509939  0.20268983  0.57930947  1
  Al  Al3  1  0.44700325  0.09316330  0.37957039  1
  Al  Al4  1  0.56040552  0.20714036  0.06971275  1
  Al  Al5  1  0.11421074  0.08640563  0.88065273  1
  Al  Al6  1  0.22306872  0.20513052  0.64355317  1
  Al  Al7  1  0.78130247  0.08900473  0.32040024  1
  Al  Al8  1  0.87818029  0.20452942  0.05288997  1
  Al  Al9  1  0.44864079  0.09234457  0.85076961  1
  Al  Al10  1  0.55857408  0.20869135  0.57466141  1
  Al  Al11  1  0.12243129  0.42922880  0.40713013  1
  Al  Al12  1  0.21353324  0.54764060  0.13885491  1
  Al  Al13  1  0.77541149  0.42895916  0.81519901  1
  Al  Al14  1  0.88509941  0.54554049  0.57930947  1
  Al  Al15  1  0.44435160  0.42653171  0.32053006  1
  Al  Al16  1  0.55251020  0.54040979  0.06236007  1
  Al  Al17  1  0.11421073  0.43271349  0.88065273  1
  Al  Al18  1  0.21735386  0.54520370  0.64326829  1
  Al  Al19  1  0.87818029  0.55062000  0.05288997  1
  Al  Al20  1  0.45022409  0.42582326  0.81900073  1
  Al  Al21  1  0.54763029  0.54284970  0.57201652  1
  Al  Al22  1  0.11768717  0.75782133  0.38866753  1
  Al  Al23  1  0.21353322  0.87215589  0.13885492  1
  Al  Al24  1  0.77801219  0.76429500  0.81711570  1
  Al  Al25  1  0.88233103  0.87549934  0.56682270  1
  Al  Al26  1  0.44435159  0.76244651  0.32053007  1
  Al  Al27  1  0.56040550  0.86578392  0.06971276  1
  Al  Al28  1  0.11617110  0.75857938  0.89388057  1
  Al  Al29  1  0.21735387  0.87077219  0.64326828  1
  Al  Al30  1  0.78130248  0.76302261  0.32040024  1
  Al  Al31  1  0.88035459  0.87648754  0.07188050  1
  Al  Al32  1  0.45022411  0.75728253  0.81900072  1
  Al  Al33  1  0.55857409  0.86606426  0.57466142  1
  Gd  Gd34  1  0.21234312  0.21049328  0.14111104  1
  Gd  Gd35  1  0.78124734  0.42604128  0.31897080  1
  N  N36  1  0.22045298  0.20643835  0.36080010  1
  N  N37  1  0.10367714  0.07319102  0.06155612  1
  N  N38  1  0.88089365  0.20809455  0.86666436  1
  N  N39  1  0.77825556  0.09002292  0.63451192  1
  N  N40  1  0.55835206  0.20984514  0.38640550  1
  N  N41  1  0.47009413  0.08161791  0.10552902  1
  N  N42  1  0.21940756  0.20696108  0.83176815  1
  N  N43  1  0.11886167  0.08865779  0.59162742  1
  N  N44  1  0.89637353  0.17952773  0.39610614  1
  N  N45  1  0.77919602  0.09668297  0.13361893  1
  N  N46  1  0.55726107  0.20934661  0.88098646  1
  N  N47  1  0.44999011  0.09166988  0.61005133  1
  N  N48  1  0.21405914  0.54075742  0.32567212  1
  N  N49  1  0.10367709  0.45646177  0.06155614  1
  N  N50  1  0.88089366  0.54434144  0.86666438  1
  N  N51  1  0.77586495  0.42873246  0.62657417  1
  N  N52  1  0.52312885  0.55510040  0.39141533  1
  N  N53  1  0.45160896  0.42578722  0.13215187  1
  N  N54  1  0.21738623  0.54654832  0.82610475  1
  N  N55  1  0.11886169  0.42581046  0.59162743  1
  N  N56  1  0.89637352  0.55742839  0.39610614  1
  N  N57  1  0.78227821  0.42552582  0.10112132  1
  N  N58  1  0.55209849  0.54061561  0.87835320  1
  N  N59  1  0.45106773  0.42437038  0.63429513  1
  N  N60  1  0.21405914  0.87851312  0.32567211  1
  N  N61  1  0.11500402  0.75916294  0.07909209  1
  N  N62  1  0.88081262  0.87625852  0.88457283  1
  N  N63  1  0.77825555  0.76505138  0.63451193  1
  N  N64  1  0.55835207  0.86513243  0.38640549  1
  N  N65  1  0.45160894  0.75593376  0.13215187  1
  N  N66  1  0.21738627  0.86939512  0.82610475  1
  N  N67  1  0.11763248  0.75784872  0.57439083  1
  N  N68  1  0.88271124  0.87530919  0.38004068  1
  N  N69  1  0.77919599  0.75745086  0.13361894  1
  N  N70  1  0.55726106  0.86672204  0.88098646  1
  N  N71  1  0.45106774  0.75789176  0.63429512  1
