# generated using pymatgen
data_GdAl17N18
_symmetry_space_group_name_H-M   'P 1'
_cell_length_a   9.48685656
_cell_length_b   9.51396489
_cell_length_c   10.40932457
_cell_angle_alpha   90.00046612
_cell_angle_beta   89.66458243
_cell_angle_gamma   59.88804934
_symmetry_Int_Tables_number   1
_chemical_formula_structural   GdAl17N18
_chemical_formula_sum   'Gd2 Al34 N36'
_cell_volume   812.71087791
_cell_formula_units_Z   2
loop_
 _symmetry_equiv_pos_site_id
 _symmetry_equiv_pos_as_xyz
  1  'x, y, z'
loop_
 _atom_site_type_symbol
 _atom_site_label
 _atom_site_symmetry_multiplicity
 _atom_site_fract_x
 _atom_site_fract_y
 _atom_site_fract_z
 _atom_site_occupancy
  Al  Al0  1  0.12256311  0.08175837  0.40601237  1
  Al  Al1  1  0.78200092  0.08843687  0.81530239  1
  Al  Al2  1  0.88603355  0.20050791  0.57835048  1
  Al  Al3  1  0.44716094  0.09308402  0.39604861  1
  Al  Al4  1  0.55540581  0.20700513  0.13726623  1
  Al  Al5  1  0.11517727  0.08729381  0.87931628  1
  Al  Al6  1  0.22461039  0.20435833  0.64353296  1
  Al  Al7  1  0.78595893  0.08572029  0.31937160  1
  Al  Al8  1  0.87602367  0.20586849  0.05191272  1
  Al  Al9  1  0.45209045  0.09062442  0.88586362  1
  Al  Al10  1  0.54962251  0.20872093  0.63855276  1
  Al  Al11  1  0.12256821  0.42903006  0.40601146  1
  Al  Al12  1  0.21780538  0.54448126  0.13777621  1
  Al  Al13  1  0.77934685  0.42700028  0.81486574  1
  Al  Al14  1  0.88603909  0.54678022  0.57834815  1
  Al  Al15  1  0.44075653  0.42822521  0.38679482  1
  Al  Al16  1  0.54454771  0.54438604  0.12106452  1
  Al  Al17  1  0.11518525  0.43087597  0.87931337  1
  Al  Al18  1  0.22280402  0.54231641  0.64079274  1
  Al  Al19  1  0.87603219  0.55142539  0.05191234  1
  Al  Al20  1  0.44356756  0.42688703  0.88509703  1
  Al  Al21  1  0.54830844  0.54250346  0.63405846  1
  Al  Al22  1  0.11848635  0.75743628  0.38642432  1
  Al  Al23  1  0.21779770  0.87104345  0.13777757  1
  Al  Al24  1  0.78200137  0.76290537  0.81530397  1
  Al  Al25  1  0.88354244  0.87489039  0.56480882  1
  Al  Al26  1  0.44075357  0.76435172  0.38679301  1
  Al  Al27  1  0.55541277  0.87090482  0.13726574  1
  Al  Al28  1  0.11755591  0.75789822  0.89136512  1
  Al  Al29  1  0.22280367  0.86820960  0.64079182  1
  Al  Al30  1  0.78596554  0.76166659  0.31936936  1
  Al  Al31  1  0.88208438  0.87561711  0.06976164  1
  Al  Al32  1  0.44356531  0.76288694  0.88509784  1
  Al  Al33  1  0.54962529  0.87496887  0.63855362  1
  Gd  Gd34  1  0.21861691  0.20734227  0.13932144  1
  Gd  Gd35  1  0.79297930  0.42019455  0.32075990  1
  N  N36  1  0.21702664  0.20814436  0.35742593  1
  N  N37  1  0.10275617  0.07654199  0.06259233  1
  N  N38  1  0.88094658  0.20758462  0.86722148  1
  N  N39  1  0.78242011  0.08695916  0.63242670  1
  N  N40  1  0.54797134  0.20814770  0.32621793  1
  N  N41  1  0.47666843  0.07834417  0.06669699  1
  N  N42  1  0.22382160  0.20474455  0.83207787  1
  N  N43  1  0.11975878  0.08838307  0.59204001  1
  N  N44  1  0.89711014  0.17511385  0.39726423  1
  N  N45  1  0.78555751  0.09264791  0.13269600  1
  N  N46  1  0.54823480  0.21029359  0.82406057  1
  N  N47  1  0.44791801  0.09271508  0.58017023  1
  N  N48  1  0.22078455  0.53697989  0.32509844  1
  N  N49  1  0.10277019  0.45405421  0.06259142  1
  N  N50  1  0.88095467  0.54477146  0.86722572  1
  N  N51  1  0.78226713  0.42554844  0.62494783  1
  N  N52  1  0.52563728  0.55382572  0.32090047  1
  N  N53  1  0.44220691  0.42516405  0.07180877  1
  N  N54  1  0.22265260  0.54304241  0.82398998  1
  N  N55  1  0.11976737  0.42522038  0.59204431  1
  N  N56  1  0.89711575  0.56108924  0.39726570  1
  N  N57  1  0.77715517  0.42810291  0.10010076  1
  N  N58  1  0.54704308  0.54313030  0.82569999  1
  N  N59  1  0.44504048  0.42656755  0.57437552  1
  N  N60  1  0.22078202  0.87555874  0.32509668  1
  N  N61  1  0.11676263  0.75829935  0.07849739  1
  N  N62  1  0.88212564  0.87559177  0.88398700  1
  N  N63  1  0.78242009  0.76398404  0.63242905  1
  N  N64  1  0.54797446  0.87717180  0.32621587  1
  N  N65  1  0.44219909  0.76599287  0.07181260  1
  N  N66  1  0.22265203  0.86762176  0.82398968  1
  N  N67  1  0.11868922  0.75733881  0.57384479  1
  N  N68  1  0.88439695  0.87445979  0.37937624  1
  N  N69  1  0.78556389  0.75514788  0.13269705  1
  N  N70  1  0.54823663  0.87477012  0.82406238  1
  N  N71  1  0.44503855  0.76174232  0.57437366  1
