# generated using pymatgen
data_GdAl17N18
_symmetry_space_group_name_H-M   'P 1'
_cell_length_a   9.48840075
_cell_length_b   9.53317184
_cell_length_c   10.46859778
_cell_angle_alpha   90.05361593
_cell_angle_beta   90.05319472
_cell_angle_gamma   59.83343815
_symmetry_Int_Tables_number   1
_chemical_formula_structural   GdAl17N18
_chemical_formula_sum   'Gd2 Al34 N36'
_cell_volume   818.68714565
_cell_formula_units_Z   2
loop_
 _symmetry_equiv_pos_site_id
 _symmetry_equiv_pos_as_xyz
  1  'x, y, z'
loop_
 _atom_site_type_symbol
 _atom_site_label
 _atom_site_symmetry_multiplicity
 _atom_site_fract_x
 _atom_site_fract_y
 _atom_site_fract_z
 _atom_site_occupancy
  Al  Al0  1  0.12064523  0.08292529  0.40650084  1
  Al  Al1  1  0.78035827  0.08929537  0.81583600  1
  Al  Al2  1  0.88541970  0.20293850  0.57830418  1
  Al  Al3  1  0.44025371  0.09590785  0.40315076  1
  Al  Al4  1  0.56294380  0.21120182  0.06429431  1
  Al  Al5  1  0.11547852  0.08629054  0.88134216  1
  Al  Al6  1  0.22623696  0.20302812  0.64648879  1
  Al  Al7  1  0.77829969  0.09033169  0.32000064  1
  Al  Al8  1  0.87850155  0.20537695  0.05222268  1
  Al  Al9  1  0.44758401  0.09137491  0.88632140  1
  Al  Al10  1  0.56142794  0.20497968  0.57983390  1
  Al  Al11  1  0.11929203  0.42909554  0.40665739  1
  Al  Al12  1  0.22130197  0.54415810  0.13869345  1
  Al  Al13  1  0.77784336  0.42810679  0.81496902  1
  Al  Al14  1  0.88557963  0.54439870  0.57851780  1
  Al  Al15  1  0.43697110  0.43058586  0.36144486  1
  Al  Al16  1  0.55140919  0.54211811  0.05796554  1
  Al  Al17  1  0.11620010  0.43085980  0.88223542  1
  Al  Al18  1  0.21617298  0.54507138  0.64298909  1
  Al  Al19  1  0.87998011  0.54981849  0.05287104  1
  Al  Al20  1  0.44815903  0.42700169  0.82725167  1
  Al  Al21  1  0.54984308  0.54519368  0.57589741  1
  Al  Al22  1  0.11543662  0.76018085  0.38815024  1
  Al  Al23  1  0.21229053  0.87287316  0.13884936  1
  Al  Al24  1  0.77873542  0.76319025  0.81634843  1
  Al  Al25  1  0.88255438  0.87456421  0.56569580  1
  Al  Al26  1  0.44323905  0.76473841  0.31979808  1
  Al  Al27  1  0.56367931  0.85966679  0.06700215  1
  Al  Al28  1  0.11656963  0.75807620  0.89473886  1
  Al  Al29  1  0.21539543  0.87195183  0.64330101  1
  Al  Al30  1  0.77896128  0.76414578  0.32010827  1
  Al  Al31  1  0.88068218  0.87617433  0.07142783  1
  Al  Al32  1  0.45040733  0.75828915  0.81675611  1
  Al  Al33  1  0.55970153  0.86315528  0.57360169  1
  Gd  Gd34  1  0.21849842  0.20805661  0.14245367  1
  Gd  Gd35  1  0.77773711  0.42665506  0.31604968  1
  N  N36  1  0.21828520  0.20736017  0.35881301  1
  N  N37  1  0.10470492  0.07521937  0.06248954  1
  N  N38  1  0.88242395  0.20725099  0.86680960  1
  N  N39  1  0.78140192  0.08787217  0.63426118  1
  N  N40  1  0.55869594  0.20729399  0.38835241  1
  N  N41  1  0.46826403  0.08272964  0.07261290  1
  N  N42  1  0.22405385  0.20421227  0.83232654  1
  N  N43  1  0.11893146  0.08930484  0.59096605  1
  N  N44  1  0.89404970  0.18097387  0.39573882  1
  N  N45  1  0.77858314  0.09705130  0.13315071  1
  N  N46  1  0.56103951  0.20733925  0.87313131  1
  N  N47  1  0.44585624  0.09191945  0.59051113  1
  N  N48  1  0.21492495  0.54036567  0.32807194  1
  N  N49  1  0.10552017  0.45447290  0.06375198  1
  N  N50  1  0.88372087  0.54301520  0.86703461  1
  N  N51  1  0.77719482  0.42806185  0.62758355  1
  N  N52  1  0.52429805  0.56010216  0.39566093  1
  N  N53  1  0.44669835  0.42939908  0.10874930  1
  N  N54  1  0.21705961  0.54636659  0.82500280  1
  N  N55  1  0.11886575  0.42431250  0.59105094  1
  N  N56  1  0.89371392  0.55750730  0.39536490  1
  N  N57  1  0.78151316  0.42679112  0.09914203  1
  N  N58  1  0.55442900  0.54174638  0.87336960  1
  N  N59  1  0.44725386  0.42628894  0.62358461  1
  N  N60  1  0.21266536  0.87947937  0.32500127  1
  N  N61  1  0.11477000  0.75864842  0.07997262  1
  N  N62  1  0.88153047  0.87523530  0.88465165  1
  N  N63  1  0.77881349  0.76416076  0.63378880  1
  N  N64  1  0.55702108  0.86658153  0.38412822  1
  N  N65  1  0.45094724  0.75689959  0.13212929  1
  N  N66  1  0.21700592  0.86936570  0.82610606  1
  N  N67  1  0.11706674  0.75797913  0.57359229  1
  N  N68  1  0.88128644  0.87590843  0.37942338  1
  N  N69  1  0.77921250  0.75789820  0.13369897  1
  N  N70  1  0.56060020  0.86100682  0.87906605  1
  N  N71  1  0.44902842  0.76041536  0.63403193  1
