# generated using pymatgen
data_GdAl17N18
_symmetry_space_group_name_H-M   'P 1'
_cell_length_a   9.53775496
_cell_length_b   9.51573420
_cell_length_c   10.27054720
_cell_angle_alpha   90.08713851
_cell_angle_beta   89.83968861
_cell_angle_gamma   60.00743144
_symmetry_Int_Tables_number   1
_chemical_formula_structural   GdAl17N18
_chemical_formula_sum   'Gd2 Al34 N36'
_cell_volume   807.31129238
_cell_formula_units_Z   2
loop_
 _symmetry_equiv_pos_site_id
 _symmetry_equiv_pos_as_xyz
  1  'x, y, z'
loop_
 _atom_site_type_symbol
 _atom_site_label
 _atom_site_symmetry_multiplicity
 _atom_site_fract_x
 _atom_site_fract_y
 _atom_site_fract_z
 _atom_site_occupancy
  Al  Al0  1  0.10806927  0.09101758  0.32132059  1
  Al  Al1  1  0.77711435  0.09142744  0.81011059  1
  Al  Al2  1  0.88829013  0.20151417  0.56568827  1
  Al  Al3  1  0.45318013  0.09023676  0.31571131  1
  Al  Al4  1  0.56112005  0.20357041  0.06183690  1
  Al  Al5  1  0.10830812  0.09584350  0.79939524  1
  Al  Al6  1  0.22373255  0.20657183  0.55881777  1
  Al  Al7  1  0.78084670  0.08818851  0.31020145  1
  Al  Al8  1  0.88517181  0.20089393  0.05035280  1
  Al  Al9  1  0.44625966  0.09348853  0.80237476  1
  Al  Al10  1  0.55740217  0.20621169  0.56014311  1
  Al  Al11  1  0.10863876  0.43359369  0.31918734  1
  Al  Al12  1  0.21699277  0.54896747  0.13392789  1
  Al  Al13  1  0.77616240  0.42853786  0.81123966  1
  Al  Al14  1  0.88950557  0.54399373  0.56560985  1
  Al  Al15  1  0.44817912  0.42522516  0.31439385  1
  Al  Al16  1  0.55101976  0.54088556  0.05084898  1
  Al  Al17  1  0.10621242  0.42732661  0.80124172  1
  Al  Al18  1  0.22110523  0.54507394  0.62795057  1
  Al  Al19  1  0.88506915  0.54552852  0.05009075  1
  Al  Al20  1  0.44834628  0.42420030  0.81110178  1
  Al  Al21  1  0.55304052  0.53993580  0.56518576  1
  Al  Al22  1  0.11628271  0.75652898  0.38317694  1
  Al  Al23  1  0.21732598  0.86567343  0.13095542  1
  Al  Al24  1  0.77632009  0.76500686  0.81025028  1
  Al  Al25  1  0.88058521  0.87667304  0.56036026  1
  Al  Al26  1  0.44789321  0.76032386  0.31616373  1
  Al  Al27  1  0.56096321  0.86776259  0.06191627  1
  Al  Al28  1  0.11700039  0.75909683  0.88081187  1
  Al  Al29  1  0.22372425  0.87018129  0.60711159  1
  Al  Al30  1  0.78103030  0.76440037  0.31015562  1
  Al  Al31  1  0.88079159  0.87543087  0.06144916  1
  Al  Al32  1  0.44488916  0.76288047  0.80936266  1
  Al  Al33  1  0.55857937  0.87073476  0.55985080  1
  Gd  Gd34  1  0.22385654  0.20210344  0.06195239  1
  Gd  Gd35  1  0.78150805  0.42637445  0.30671673  1
  N  N36  1  0.22341354  0.20540333  0.36612470  1
  N  N37  1  0.08671714  0.08923410  0.13369299  1
  N  N38  1  0.88978944  0.20239951  0.86264022  1
  N  N39  1  0.77589450  0.09324103  0.62430993  1
  N  N40  1  0.55901263  0.20586660  0.37301043  1
  N  N41  1  0.47642898  0.07823479  0.13223823  1
  N  N42  1  0.22132845  0.20552254  0.84355118  1
  N  N43  1  0.11045985  0.09785234  0.61183895  1
  N  N44  1  0.89809733  0.17830786  0.38437979  1
  N  N45  1  0.77785113  0.09529334  0.12075727  1
  N  N46  1  0.55412910  0.20463331  0.87196384  1
  N  N47  1  0.44746868  0.09350518  0.61450405  1
  N  N48  1  0.22392204  0.54324119  0.32449085  1
  N  N49  1  0.08770317  0.45331640  0.13021430  1
  N  N50  1  0.88857518  0.54151911  0.86299709  1
  N  N51  1  0.77824976  0.42819009  0.61818057  1
  N  N52  1  0.53158446  0.55052542  0.38214447  1
  N  N53  1  0.45033206  0.42489496  0.12021736  1
  N  N54  1  0.21840718  0.54343196  0.82062289  1
  N  N55  1  0.11019574  0.42707561  0.61387172  1
  N  N56  1  0.89975446  0.55689667  0.38409747  1
  N  N57  1  0.77638683  0.42781618  0.08708305  1
  N  N58  1  0.55118142  0.54179338  0.86486779  1
  N  N59  1  0.45122753  0.42303557  0.62219304  1
  N  N60  1  0.22487608  0.86712418  0.33641596  1
  N  N61  1  0.11315238  0.75876732  0.07021095  1
  N  N62  1  0.88259970  0.87512241  0.87280736  1
  N  N63  1  0.77614102  0.76493774  0.62441832  1
  N  N64  1  0.55975834  0.86857340  0.37301309  1
  N  N65  1  0.44934763  0.75807623  0.12266928  1
  N  N66  1  0.21947407  0.87260143  0.82684352  1
  N  N67  1  0.11272261  0.75961666  0.56969833  1
  N  N68  1  0.88409524  0.87470771  0.37013026  1
  N  N69  1  0.77776217  0.75880696  0.12078367  1
  N  N70  1  0.55356215  0.87432201  0.87176096  1
  N  N71  1  0.45130203  0.76043360  0.62015432  1
