# generated using pymatgen
data_GdAl17N18
_symmetry_space_group_name_H-M   'P 1'
_cell_length_a   9.50349046
_cell_length_b   9.56101724
_cell_length_c   10.44667240
_cell_angle_alpha   89.96868112
_cell_angle_beta   90.10837365
_cell_angle_gamma   59.76748428
_symmetry_Int_Tables_number   1
_chemical_formula_structural   GdAl17N18
_chemical_formula_sum   'Gd2 Al34 N36'
_cell_volume   820.10998823
_cell_formula_units_Z   2
loop_
 _symmetry_equiv_pos_site_id
 _symmetry_equiv_pos_as_xyz
  1  'x, y, z'
loop_
 _atom_site_type_symbol
 _atom_site_label
 _atom_site_symmetry_multiplicity
 _atom_site_fract_x
 _atom_site_fract_y
 _atom_site_fract_z
 _atom_site_occupancy
  Al  Al0  1  0.12109676  0.08389986  0.40580663  1
  Al  Al1  1  0.78563329  0.08670904  0.81627163  1
  Al  Al2  1  0.88478840  0.20131906  0.57651988  1
  Al  Al3  1  0.44524324  0.10117591  0.40291502  1
  Al  Al4  1  0.55698321  0.20855747  0.12989692  1
  Al  Al5  1  0.11451920  0.08817171  0.88138911  1
  Al  Al6  1  0.22210094  0.20525302  0.64450538  1
  Al  Al7  1  0.78448406  0.08677030  0.31932565  1
  Al  Al8  1  0.88002833  0.20373668  0.05285295  1
  Al  Al9  1  0.44853156  0.09676029  0.88104219  1
  Al  Al10  1  0.55039958  0.20813559  0.64289508  1
  Al  Al11  1  0.11988994  0.43012573  0.40516956  1
  Al  Al12  1  0.22189409  0.54304313  0.13851935  1
  Al  Al13  1  0.77586702  0.42848486  0.81214801  1
  Al  Al14  1  0.88546784  0.54576288  0.57676136  1
  Al  Al15  1  0.43653423  0.42325424  0.39494655  1
  Al  Al16  1  0.55918199  0.53691396  0.05418740  1
  Al  Al17  1  0.11348237  0.43112494  0.88098651  1
  Al  Al18  1  0.21969705  0.54319462  0.64263479  1
  Al  Al19  1  0.87959540  0.54967529  0.05335190  1
  Al  Al20  1  0.43967922  0.42467271  0.88136821  1
  Al  Al21  1  0.55261215  0.53883312  0.57691354  1
  Al  Al22  1  0.11821712  0.75720436  0.38623899  1
  Al  Al23  1  0.22308360  0.86754880  0.13810807  1
  Al  Al24  1  0.77965008  0.76289097  0.81445767  1
  Al  Al25  1  0.88427355  0.87509758  0.56384877  1
  Al  Al26  1  0.43353594  0.77102094  0.39600623  1
  Al  Al27  1  0.56715330  0.86452106  0.05975943  1
  Al  Al28  1  0.11577948  0.75799064  0.89395698  1
  Al  Al29  1  0.21932750  0.87037737  0.64334289  1
  Al  Al30  1  0.77658260  0.76636562  0.32013795  1
  Al  Al31  1  0.88343445  0.87502424  0.07185066  1
  Al  Al32  1  0.43776396  0.76437267  0.87552491  1
  Al  Al33  1  0.56171375  0.87008701  0.58007383  1
  Gd  Gd34  1  0.22210201  0.20498782  0.14218715  1
  Gd  Gd35  1  0.78009000  0.42688799  0.31690081  1
  N  N36  1  0.21891365  0.20780492  0.35970853  1
  N  N37  1  0.10617567  0.07471433  0.06404213  1
  N  N38  1  0.88161269  0.20804618  0.86795083  1
  N  N39  1  0.78358292  0.08632114  0.63266504  1
  N  N40  1  0.54954205  0.20844985  0.33002184  1
  N  N41  1  0.47191368  0.08750287  0.06384296  1
  N  N42  1  0.22164097  0.20563994  0.83154957  1
  N  N43  1  0.11758388  0.08963047  0.59130504  1
  N  N44  1  0.89533377  0.17928513  0.39461598  1
  N  N45  1  0.78609885  0.09297494  0.13209571  1
  N  N46  1  0.55218667  0.20890027  0.82621061  1
  N  N47  1  0.44444808  0.09810938  0.58910438  1
  N  N48  1  0.22184246  0.53669398  0.32586583  1
  N  N49  1  0.10497180  0.45304600  0.06448720  1
  N  N50  1  0.88121379  0.54365537  0.86736855  1
  N  N51  1  0.77798144  0.42715386  0.62584194  1
  N  N52  1  0.53173914  0.55001270  0.38902777  1
  N  N53  1  0.44206972  0.42536967  0.07125037  1
  N  N54  1  0.21919393  0.54449835  0.82506129  1
  N  N55  1  0.11704156  0.42625988  0.59143190  1
  N  N56  1  0.89461847  0.55977034  0.39414440  1
  N  N57  1  0.78131129  0.42582916  0.09983306  1
  N  N58  1  0.55503112  0.53719921  0.86488124  1
  N  N59  1  0.43930331  0.42267196  0.58389171  1
  N  N60  1  0.22156428  0.87562648  0.32576442  1
  N  N61  1  0.11722479  0.75778762  0.08084356  1
  N  N62  1  0.88225159  0.87446225  0.88511320  1
  N  N63  1  0.78160351  0.76410093  0.63312163  1
  N  N64  1  0.55983056  0.87234184  0.38588152  1
  N  N65  1  0.44020184  0.76376571  0.07232416  1
  N  N66  1  0.21710053  0.86991544  0.82491995  1
  N  N67  1  0.11812629  0.75745643  0.57361541  1
  N  N68  1  0.88440452  0.87402567  0.37743322  1
  N  N69  1  0.77803742  0.75881332  0.13225391  1
  N  N70  1  0.56056391  0.86777408  0.86750604  1
  N  N71  1  0.43854532  0.76679162  0.59030553  1
