# generated using pymatgen
data_GdAl17N18
_symmetry_space_group_name_H-M   'P 1'
_cell_length_a   9.48699988
_cell_length_b   9.53023156
_cell_length_c   10.46981543
_cell_angle_alpha   89.94903885
_cell_angle_beta   89.99465316
_cell_angle_gamma   59.83437667
_symmetry_Int_Tables_number   1
_chemical_formula_structural   GdAl17N18
_chemical_formula_sum   'Gd2 Al34 N36'
_cell_volume   818.41686026
_cell_formula_units_Z   2
loop_
 _symmetry_equiv_pos_site_id
 _symmetry_equiv_pos_as_xyz
  1  'x, y, z'
loop_
 _atom_site_type_symbol
 _atom_site_label
 _atom_site_symmetry_multiplicity
 _atom_site_fract_x
 _atom_site_fract_y
 _atom_site_fract_z
 _atom_site_occupancy
  Al  Al0  1  0.12129717  0.08396739  0.40637067  1
  Al  Al1  1  0.78439482  0.08747851  0.81525079  1
  Al  Al2  1  0.88434833  0.20186454  0.57727348  1
  Al  Al3  1  0.44856775  0.09320388  0.40032162  1
  Al  Al4  1  0.55663887  0.20789253  0.13859972  1
  Al  Al5  1  0.11446934  0.08844980  0.88023834  1
  Al  Al6  1  0.22218040  0.20590347  0.64348700  1
  Al  Al7  1  0.78752090  0.08529364  0.31970156  1
  Al  Al8  1  0.87920908  0.20365374  0.05207403  1
  Al  Al9  1  0.45046884  0.09422715  0.88298438  1
  Al  Al10  1  0.54944223  0.20856810  0.64169975  1
  Al  Al11  1  0.11993567  0.42980338  0.40578946  1
  Al  Al12  1  0.22089494  0.54317935  0.13845136  1
  Al  Al13  1  0.77355576  0.42938690  0.81208884  1
  Al  Al14  1  0.88356825  0.54724826  0.57643842  1
  Al  Al15  1  0.43619067  0.42338709  0.39157787  1
  Al  Al16  1  0.55962194  0.53632507  0.05536710  1
  Al  Al17  1  0.11436707  0.42996753  0.88005841  1
  Al  Al18  1  0.22112403  0.54199824  0.64224759  1
  Al  Al19  1  0.88045101  0.54860079  0.05187530  1
  Al  Al20  1  0.44016108  0.42292593  0.88492474  1
  Al  Al21  1  0.55226328  0.53922816  0.57214900  1
  Al  Al22  1  0.11924610  0.75694750  0.38724207  1
  Al  Al23  1  0.22150367  0.86873393  0.13851227  1
  Al  Al24  1  0.78394967  0.76123269  0.81558438  1
  Al  Al25  1  0.88321566  0.87468434  0.56397073  1
  Al  Al26  1  0.43698069  0.77437940  0.39410420  1
  Al  Al27  1  0.56146643  0.86835305  0.10643139  1
  Al  Al28  1  0.11742226  0.75720425  0.89285223  1
  Al  Al29  1  0.21970980  0.86968420  0.64264205  1
  Al  Al30  1  0.77973395  0.76493220  0.31973592  1
  Al  Al31  1  0.88432504  0.87562967  0.07033011  1
  Al  Al32  1  0.43877950  0.76701544  0.87929807  1
  Al  Al33  1  0.55082842  0.87563224  0.63575710  1
  Gd  Gd34  1  0.22211929  0.20456938  0.14244810  1
  Gd  Gd35  1  0.78138815  0.42655706  0.31607404  1
  N  N36  1  0.21834875  0.20830162  0.35941679  1
  N  N37  1  0.10579173  0.07519289  0.06282894  1
  N  N38  1  0.88090443  0.20831124  0.86763721  1
  N  N39  1  0.78285292  0.08648902  0.63250003  1
  N  N40  1  0.54887636  0.20779468  0.32638720  1
  N  N41  1  0.47609310  0.08341006  0.06297466  1
  N  N42  1  0.22282494  0.20522111  0.83096590  1
  N  N43  1  0.11738703  0.08980166  0.59175286  1
  N  N44  1  0.89511304  0.17997977  0.39612881  1
  N  N45  1  0.78723871  0.09219596  0.13360253  1
  N  N46  1  0.55071717  0.20934646  0.82452496  1
  N  N47  1  0.44589840  0.09546359  0.58459475  1
  N  N48  1  0.22060456  0.53717748  0.32487829  1
  N  N49  1  0.10619279  0.45125287  0.06315076  1
  N  N50  1  0.88094555  0.54326950  0.86758280  1
  N  N51  1  0.77574493  0.42840914  0.62627849  1
  N  N52  1  0.53159489  0.55110492  0.38588740  1
  N  N53  1  0.44286642  0.42363886  0.07441072  1
  N  N54  1  0.22103438  0.54303706  0.82475755  1
  N  N55  1  0.11618893  0.42677518  0.59152741  1
  N  N56  1  0.89427673  0.56000025  0.39497337  1
  N  N57  1  0.78155393  0.42575668  0.09979450  1
  N  N58  1  0.55391902  0.53806448  0.86811484  1
  N  N59  1  0.43930111  0.42169460  0.57949242  1
  N  N60  1  0.22125720  0.87569849  0.32538549  1
  N  N61  1  0.11863229  0.75728126  0.07908164  1
  N  N62  1  0.88278463  0.87513368  0.88499738  1
  N  N63  1  0.78279218  0.76352623  0.63340591  1
  N  N64  1  0.55196203  0.87669220  0.34345968  1
  N  N65  1  0.44147529  0.76643320  0.07019671  1
  N  N66  1  0.21872984  0.86924393  0.82428516  1
  N  N67  1  0.11840560  0.75686571  0.57392196  1
  N  N68  1  0.88501327  0.87357630  0.37878853  1
  N  N69  1  0.78575533  0.75494495  0.13071823  1
  N  N70  1  0.55168760  0.87412649  0.83111456  1
  N  N71  1  0.43911758  0.76903246  0.58461145  1
