# generated using pymatgen
data_GdAl17N18
_symmetry_space_group_name_H-M   'P 1'
_cell_length_a   9.50897646
_cell_length_b   9.51312057
_cell_length_c   10.12980990
_cell_angle_alpha   90.00000057
_cell_angle_beta   89.92923520
_cell_angle_gamma   59.98558514
_symmetry_Int_Tables_number   1
_chemical_formula_structural   GdAl17N18
_chemical_formula_sum   'Gd2 Al34 N36'
_cell_volume   793.46021814
_cell_formula_units_Z   2
loop_
 _symmetry_equiv_pos_site_id
 _symmetry_equiv_pos_as_xyz
  1  'x, y, z'
loop_
 _atom_site_type_symbol
 _atom_site_label
 _atom_site_symmetry_multiplicity
 _atom_site_fract_x
 _atom_site_fract_y
 _atom_site_fract_z
 _atom_site_occupancy
  Al  Al0  1  0.11074661  0.08426087  0.30715275  1
  Al  Al1  1  0.77685593  0.09219867  0.80126971  1
  Al  Al2  1  0.89020115  0.19886462  0.55719701  1
  Al  Al3  1  0.45243028  0.09044410  0.30744603  1
  Al  Al4  1  0.56166769  0.20337510  0.05265357  1
  Al  Al5  1  0.11252909  0.09144318  0.79318920  1
  Al  Al6  1  0.22229911  0.20550969  0.55047698  1
  Al  Al7  1  0.77953264  0.08892642  0.30161380  1
  Al  Al8  1  0.88667930  0.20015073  0.04245781  1
  Al  Al9  1  0.44694212  0.09318818  0.79336413  1
  Al  Al10  1  0.55677078  0.20648282  0.55132730  1
  Al  Al11  1  0.11074662  0.43831097  0.30715275  1
  Al  Al12  1  0.21952957  0.54538078  0.05229684  1
  Al  Al13  1  0.77780431  0.42775708  0.80154488  1
  Al  Al14  1  0.89020115  0.54425271  0.55719701  1
  Al  Al15  1  0.43914119  0.43009579  0.30242179  1
  Al  Al16  1  0.55269052  0.54031398  0.04270453  1
  Al  Al17  1  0.11252909  0.42934619  0.79318920  1
  Al  Al18  1  0.22327465  0.54018892  0.55098842  1
  Al  Al19  1  0.88667930  0.54648846  0.04245780  1
  Al  Al20  1  0.44275605  0.42688762  0.80154498  1
  Al  Al21  1  0.54882068  0.54224890  0.55693940  1
  Al  Al22  1  0.11104900  0.76113472  0.30230105  1
  Al  Al23  1  0.21952958  0.86840812  0.05229683  1
  Al  Al24  1  0.77685594  0.76426388  0.80126970  1
  Al  Al25  1  0.88834744  0.87248553  0.55098210  1
  Al  Al26  1  0.43914117  0.76408148  0.30242179  1
  Al  Al27  1  0.56166771  0.86827569  0.05265357  1
  Al  Al28  1  0.11039010  0.76146418  0.80188854  1
  Al  Al29  1  0.22327466  0.86985489  0.55098842  1
  Al  Al30  1  0.77953265  0.76485942  0.30161380  1
  Al  Al31  1  0.88925032  0.87203409  0.05311588  1
  Al  Al32  1  0.44275605  0.76367481  0.80154498  1
  Al  Al33  1  0.55677078  0.87006488  0.55132730  1
  Gd  Gd34  1  0.22308260  0.20511794  0.05703690  1
  Gd  Gd35  1  0.77955942  0.42687953  0.30284021  1
  N  N36  1  0.22085522  0.20623163  0.35330595  1
  N  N37  1  0.09364046  0.07968911  0.12008514  1
  N  N38  1  0.89120470  0.20170420  0.85290177  1
  N  N39  1  0.77583401  0.09223478  0.61365246  1
  N  N40  1  0.55740315  0.20808436  0.36216278  1
  N  N41  1  0.47733727  0.07799060  0.12212952  1
  N  N42  1  0.22270023  0.20530912  0.83562310  1
  N  N43  1  0.11344567  0.09124637  0.60628265  1
  N  N44  1  0.90054738  0.17582949  0.37339965  1
  N  N45  1  0.77857540  0.09482724  0.11033715  1
  N  N46  1  0.55453043  0.20495012  0.86127885  1
  N  N47  1  0.44694137  0.09318855  0.60376607  1
  N  N48  1  0.22360844  0.54130235  0.36286551  1
  N  N49  1  0.09364046  0.45998891  0.12008514  1
  N  N50  1  0.89120470  0.54040958  0.85290177  1
  N  N51  1  0.77756341  0.42787753  0.60612082  1
  N  N52  1  0.52644762  0.55343542  0.37056558  1
  N  N53  1  0.44438186  0.42792068  0.10971055  1
  N  N54  1  0.22134203  0.53898760  0.86131827  1
  N  N55  1  0.11344566  0.42862643  0.60628266  1
  N  N56  1  0.90054738  0.55694162  0.37339966  1
  N  N57  1  0.77906309  0.42712769  0.08006251  1
  N  N58  1  0.55205127  0.54063360  0.85431193  1
  N  N59  1  0.44305986  0.42632552  0.61333336  1
  N  N60  1  0.22360843  0.86840768  0.36286551  1
  N  N61  1  0.11054857  0.76138495  0.11183315  1
  N  N62  1  0.88915282  0.87208284  0.86274842  1
  N  N63  1  0.77583400  0.76524969  0.61365246  1
  N  N64  1  0.55740315  0.86783096  0.36216277  1
  N  N65  1  0.44438187  0.76101591  0.10971054  1
  N  N66  1  0.22134203  0.87298885  0.86131826  1
  N  N67  1  0.11038674  0.76146586  0.61157895  1
  N  N68  1  0.88891653  0.87220098  0.36042577  1
  N  N69  1  0.77857541  0.75991585  0.11033716  1
  N  N70  1  0.55453044  0.87383794  0.86127885  1
  N  N71  1  0.44305986  0.76393309  0.61333336  1
