# generated using pymatgen
data_GdAl17N18
_symmetry_space_group_name_H-M   'P 1'
_cell_length_a   9.48579399
_cell_length_b   9.50870276
_cell_length_c   10.40732289
_cell_angle_alpha   90.00019497
_cell_angle_beta   89.52518111
_cell_angle_gamma   59.91978187
_symmetry_Int_Tables_number   1
_chemical_formula_structural   GdAl17N18
_chemical_formula_sum   'Gd2 Al34 N36'
_cell_volume   812.25627375
_cell_formula_units_Z   2
loop_
 _symmetry_equiv_pos_site_id
 _symmetry_equiv_pos_as_xyz
  1  'x, y, z'
loop_
 _atom_site_type_symbol
 _atom_site_label
 _atom_site_symmetry_multiplicity
 _atom_site_fract_x
 _atom_site_fract_y
 _atom_site_fract_z
 _atom_site_occupancy
  Al  Al0  1  0.12530237  0.08267708  0.40819961  1
  Al  Al1  1  0.77555562  0.09127726  0.82113997  1
  Al  Al2  1  0.88498166  0.20201321  0.58201081  1
  Al  Al3  1  0.45807657  0.08759254  0.33081037  1
  Al  Al4  1  0.55975836  0.20453224  0.07633872  1
  Al  Al5  1  0.11191723  0.08653149  0.88295033  1
  Al  Al6  1  0.21967623  0.20678155  0.64823353  1
  Al  Al7  1  0.78314627  0.08837316  0.32453059  1
  Al  Al8  1  0.87607714  0.20449160  0.05568458  1
  Al  Al9  1  0.45101810  0.09111721  0.82654506  1
  Al  Al10  1  0.55543886  0.20549180  0.57531429  1
  Al  Al11  1  0.12530462  0.42526603  0.40819963  1
  Al  Al12  1  0.21408031  0.54772367  0.14305438  1
  Al  Al13  1  0.77431096  0.42947077  0.81793317  1
  Al  Al14  1  0.88498155  0.54623817  0.58200472  1
  Al  Al15  1  0.44498264  0.42600057  0.32510980  1
  Al  Al16  1  0.55247019  0.54040109  0.06587777  1
  Al  Al17  1  0.11192859  0.43479654  0.88295245  1
  Al  Al18  1  0.21864171  0.54419144  0.64580761  1
  Al  Al19  1  0.87609026  0.55269385  0.05568505  1
  Al  Al20  1  0.44982913  0.42402515  0.82366775  1
  Al  Al21  1  0.54835077  0.54244809  0.57653268  1
  Al  Al22  1  0.11839140  0.75742753  0.39262446  1
  Al  Al23  1  0.21406247  0.87146881  0.14304153  1
  Al  Al24  1  0.77555451  0.76640862  0.82113316  1
  Al  Al25  1  0.88257987  0.87532391  0.57085053  1
  Al  Al26  1  0.44497456  0.76227719  0.32509428  1
  Al  Al27  1  0.55975454  0.86898485  0.07633065  1
  Al  Al28  1  0.11638608  0.75842478  0.89660053  1
  Al  Al29  1  0.21863133  0.87040671  0.64581063  1
  Al  Al30  1  0.78314353  0.76172576  0.32452481  1
  Al  Al31  1  0.88241710  0.87542184  0.07557955  1
  Al  Al32  1  0.44981753  0.75940043  0.82366970  1
  Al  Al33  1  0.55542772  0.87231368  0.57530752  1
  Gd  Gd34  1  0.20676735  0.21324945  0.13507640  1
  Gd  Gd35  1  0.78186542  0.42568496  0.32257404  1
  N  N36  1  0.22356272  0.20484079  0.35547330  1
  N  N37  1  0.10114213  0.07145043  0.06414852  1
  N  N38  1  0.87848521  0.20862876  0.86959545  1
  N  N39  1  0.77629604  0.09056742  0.63765173  1
  N  N40  1  0.55780237  0.20702011  0.38883566  1
  N  N41  1  0.47640944  0.07842981  0.14461052  1
  N  N42  1  0.21605884  0.20859286  0.83864292  1
  N  N43  1  0.11966899  0.08878436  0.59358810  1
  N  N44  1  0.89826891  0.17890760  0.39893687  1
  N  N45  1  0.77926044  0.09580393  0.13713209  1
  N  N46  1  0.55342464  0.20645254  0.88912525  1
  N  N47  1  0.45236563  0.09043760  0.63887684  1
  N  N48  1  0.21497702  0.54065756  0.32950423  1
  N  N49  1  0.10115344  0.46066844  0.06414972  1
  N  N50  1  0.87849534  0.54613050  0.86959535  1
  N  N51  1  0.77653027  0.42835465  0.62956719  1
  N  N52  1  0.52374457  0.55476228  0.39566984  1
  N  N53  1  0.45208054  0.42482236  0.13596431  1
  N  N54  1  0.21709314  0.54644521  0.82869584  1
  N  N55  1  0.11966727  0.42478521  0.59358714  1
  N  N56  1  0.89826716  0.55606456  0.39892821  1
  N  N57  1  0.78251271  0.42538181  0.10430163  1
  N  N58  1  0.55093394  0.54116098  0.88163054  1
  N  N59  1  0.45236594  0.42188953  0.63777351  1
  N  N60  1  0.21496919  0.87761725  0.32949293  1
  N  N61  1  0.11630004  0.75847966  0.08221944  1
  N  N62  1  0.88109278  0.87607258  0.88807657  1
  N  N63  1  0.77628680  0.76637029  0.63764417  1
  N  N64  1  0.55779505  0.86843212  0.38882658  1
  N  N65  1  0.45206284  0.75638337  0.13594791  1
  N  N66  1  0.21708095  0.86971270  0.82869944  1
  N  N67  1  0.11810675  0.75756379  0.57819438  1
  N  N68  1  0.88406423  0.87458627  0.38366683  1
  N  N69  1  0.77925351  0.75820356  0.13712746  1
  N  N70  1  0.55342285  0.87337309  0.88911924  1
  N  N71  1  0.45235458  0.75899383  0.63777593  1
