# generated using pymatgen
data_GdAl17N18
_symmetry_space_group_name_H-M   'P 1'
_cell_length_a   9.55624619
_cell_length_b   9.54165383
_cell_length_c   10.26903981
_cell_angle_alpha   89.70621815
_cell_angle_beta   89.24046904
_cell_angle_gamma   59.97517629
_symmetry_Int_Tables_number   1
_chemical_formula_structural   GdAl17N18
_chemical_formula_sum   'Gd2 Al34 N36'
_cell_volume   810.63238371
_cell_formula_units_Z   2
loop_
 _symmetry_equiv_pos_site_id
 _symmetry_equiv_pos_as_xyz
  1  'x, y, z'
loop_
 _atom_site_type_symbol
 _atom_site_label
 _atom_site_symmetry_multiplicity
 _atom_site_fract_x
 _atom_site_fract_y
 _atom_site_fract_z
 _atom_site_occupancy
  Al  Al0  1  0.11940287  0.08425353  0.41606135  1
  Al  Al1  1  0.77831119  0.08689407  0.83058550  1
  Al  Al2  1  0.89211053  0.20720225  0.63671632  1
  Al  Al3  1  0.45051074  0.09172317  0.40775151  1
  Al  Al4  1  0.55062010  0.20730580  0.14718993  1
  Al  Al5  1  0.11570693  0.08609036  0.88914229  1
  Al  Al6  1  0.22762606  0.20404914  0.65337291  1
  Al  Al7  1  0.78705417  0.08526084  0.32525928  1
  Al  Al8  1  0.87969921  0.19986326  0.08140603  1
  Al  Al9  1  0.45005635  0.09034307  0.89732314  1
  Al  Al10  1  0.55148433  0.21022922  0.64864882  1
  Al  Al11  1  0.12644746  0.42727376  0.41677772  1
  Al  Al12  1  0.21714110  0.54376005  0.15016370  1
  Al  Al13  1  0.76802457  0.43337080  0.88284521  1
  Al  Al14  1  0.88984176  0.54830524  0.59067978  1
  Al  Al15  1  0.43952641  0.42924187  0.39693731  1
  Al  Al16  1  0.53932690  0.54557628  0.14236736  1
  Al  Al17  1  0.11485322  0.43029201  0.89075313  1
  Al  Al18  1  0.22512427  0.54256579  0.65153798  1
  Al  Al19  1  0.87886619  0.55247733  0.07057683  1
  Al  Al20  1  0.44158329  0.42723923  0.89860294  1
  Al  Al21  1  0.55527762  0.54003173  0.64969641  1
  Al  Al22  1  0.11769988  0.75872677  0.39697786  1
  Al  Al23  1  0.21671079  0.86945542  0.15006909  1
  Al  Al24  1  0.78112458  0.76209331  0.82725863  1
  Al  Al25  1  0.88401529  0.87794104  0.57643365  1
  Al  Al26  1  0.43922084  0.76477421  0.39717326  1
  Al  Al27  1  0.55351728  0.87070353  0.14943658  1
  Al  Al28  1  0.11788372  0.75717392  0.90148451  1
  Al  Al29  1  0.22535479  0.86597591  0.65053512  1
  Al  Al30  1  0.78731749  0.76218495  0.33147002  1
  Al  Al31  1  0.88184318  0.87274422  0.07923493  1
  Al  Al32  1  0.44205033  0.76334295  0.89845365  1
  Al  Al33  1  0.55121381  0.87343382  0.64888113  1
  Gd  Gd34  1  0.21362123  0.20542083  0.15322398  1
  Gd  Gd35  1  0.78102118  0.42665939  0.36664569  1
  N  N36  1  0.22401807  0.20517622  0.37297330  1
  N  N37  1  0.10037646  0.07375294  0.07194924  1
  N  N38  1  0.88525500  0.20647685  0.86162758  1
  N  N39  1  0.78269001  0.09004665  0.64268358  1
  N  N40  1  0.55050541  0.20834065  0.33838634  1
  N  N41  1  0.46984677  0.07953965  0.08066977  1
  N  N42  1  0.22423490  0.20398871  0.84445866  1
  N  N43  1  0.11823508  0.08960142  0.60493368  1
  N  N44  1  0.91122810  0.17093457  0.36784522  1
  N  N45  1  0.77731580  0.08939601  0.13474940  1
  N  N46  1  0.54788645  0.21041320  0.83782517  1
  N  N47  1  0.45074838  0.09229334  0.59395497  1
  N  N48  1  0.22238710  0.53754387  0.33811914  1
  N  N49  1  0.10252113  0.45250074  0.07764374  1
  N  N50  1  0.88198659  0.54568769  0.88132541  1
  N  N51  1  0.77883828  0.43042140  0.60930532  1
  N  N52  1  0.51823260  0.55742890  0.32598311  1
  N  N53  1  0.43953186  0.42631742  0.08544479  1
  N  N54  1  0.22384603  0.54192568  0.83697528  1
  N  N55  1  0.12141956  0.42568254  0.60577623  1
  N  N56  1  0.90631061  0.56083805  0.40405474  1
  N  N57  1  0.76919632  0.42981218  0.09454466  1
  N  N58  1  0.54795875  0.54218956  0.83923531  1
  N  N59  1  0.44684578  0.42872984  0.58675289  1
  N  N60  1  0.22326634  0.87461484  0.33851433  1
  N  N61  1  0.11441367  0.75810581  0.09114150  1
  N  N62  1  0.88440028  0.87235192  0.89225453  1
  N  N63  1  0.78236441  0.76560708  0.64235758  1
  N  N64  1  0.55089658  0.87456774  0.34035843  1
  N  N65  1  0.44018667  0.76570704  0.08574450  1
  N  N66  1  0.22447610  0.86596045  0.83561480  1
  N  N67  1  0.11776933  0.75860364  0.58656314  1
  N  N68  1  0.88497482  0.87592331  0.38924648  1
  N  N69  1  0.78214066  0.75735271  0.14312968  1
  N  N70  1  0.54882812  0.87327324  0.83722406  1
  N  N71  1  0.44660158  0.75996241  0.58663764  1
