# generated using pymatgen
data_GdAl17N18
_symmetry_space_group_name_H-M   'P 1'
_cell_length_a   9.53477834
_cell_length_b   9.53087051
_cell_length_c   10.18260002
_cell_angle_alpha   89.90481445
_cell_angle_beta   89.82941095
_cell_angle_gamma   60.01409315
_symmetry_Int_Tables_number   1
_chemical_formula_structural   GdAl17N18
_chemical_formula_sum   'Gd2 Al34 N36'
_cell_volume   801.47911645
_cell_formula_units_Z   2
loop_
 _symmetry_equiv_pos_site_id
 _symmetry_equiv_pos_as_xyz
  1  'x, y, z'
loop_
 _atom_site_type_symbol
 _atom_site_label
 _atom_site_symmetry_multiplicity
 _atom_site_fract_x
 _atom_site_fract_y
 _atom_site_fract_z
 _atom_site_occupancy
  Al  Al0  1  0.11151396  0.08524857  0.31609851  1
  Al  Al1  1  0.77621997  0.09261160  0.81108833  1
  Al  Al2  1  0.89070626  0.19835927  0.56689521  1
  Al  Al3  1  0.45241323  0.09032398  0.31700485  1
  Al  Al4  1  0.56092551  0.20445236  0.06219710  1
  Al  Al5  1  0.11232448  0.09100790  0.80292857  1
  Al  Al6  1  0.22304475  0.20378660  0.56063200  1
  Al  Al7  1  0.77991984  0.08930246  0.31111706  1
  Al  Al8  1  0.88679889  0.20059985  0.05193344  1
  Al  Al9  1  0.44659984  0.09327409  0.80343444  1
  Al  Al10  1  0.55796980  0.20484110  0.56103964  1
  Al  Al11  1  0.10939388  0.43543281  0.32161776  1
  Al  Al12  1  0.22032139  0.54448397  0.09272654  1
  Al  Al13  1  0.77760351  0.42716419  0.81208186  1
  Al  Al14  1  0.88890449  0.54402671  0.56740293  1
  Al  Al15  1  0.44479445  0.42695432  0.31617441  1
  Al  Al16  1  0.55252034  0.54049746  0.05205833  1
  Al  Al17  1  0.11186789  0.42894714  0.80086392  1
  Al  Al18  1  0.22630583  0.53487317  0.56871516  1
  Al  Al19  1  0.88542903  0.54733724  0.05181345  1
  Al  Al20  1  0.44233700  0.42664697  0.81035155  1
  Al  Al21  1  0.55082374  0.54164885  0.56701571  1
  Al  Al22  1  0.11082515  0.76196893  0.37670180  1
  Al  Al23  1  0.22307989  0.87307994  0.06467208  1
  Al  Al24  1  0.77587794  0.76404947  0.81109714  1
  Al  Al25  1  0.88154812  0.87547124  0.56314923  1
  Al  Al26  1  0.44128567  0.76357055  0.31201724  1
  Al  Al27  1  0.56052080  0.86920902  0.06203267  1
  Al  Al28  1  0.11184649  0.75699873  0.87675274  1
  Al  Al29  1  0.22720841  0.87287909  0.56266455  1
  Al  Al30  1  0.77883711  0.76465209  0.31119241  1
  Al  Al31  1  0.88041566  0.87692717  0.06461299  1
  Al  Al32  1  0.44294204  0.76340236  0.81136489  1
  Al  Al33  1  0.55693572  0.86992142  0.56090546  1
  Gd  Gd34  1  0.22244881  0.20885594  0.06409067  1
  Gd  Gd35  1  0.78093331  0.42627603  0.31126971  1
  N  N36  1  0.22185152  0.20494281  0.36511275  1
  N  N37  1  0.09390576  0.08308148  0.13017543  1
  N  N38  1  0.89124944  0.20101202  0.86335617  1
  N  N39  1  0.77537870  0.09311780  0.62446606  1
  N  N40  1  0.55909517  0.20592000  0.37297493  1
  N  N41  1  0.47580417  0.07927858  0.13169816  1
  N  N42  1  0.22208796  0.20506887  0.84404679  1
  N  N43  1  0.11291593  0.09184120  0.61712622  1
  N  N44  1  0.90155180  0.17531997  0.38338578  1
  N  N45  1  0.77703842  0.09743660  0.12107151  1
  N  N46  1  0.55424320  0.20523454  0.87168491  1
  N  N47  1  0.44746512  0.09255811  0.61422091  1
  N  N48  1  0.22776094  0.53489936  0.36609590  1
  N  N49  1  0.08878182  0.45974276  0.13574304  1
  N  N50  1  0.89099870  0.54004004  0.86304830  1
  N  N51  1  0.77811878  0.42688487  0.61731242  1
  N  N52  1  0.52906499  0.55327062  0.38154935  1
  N  N53  1  0.44761713  0.42696038  0.12402347  1
  N  N54  1  0.22337257  0.53295980  0.86038067  1
  N  N55  1  0.11209110  0.42645791  0.61409284  1
  N  N56  1  0.89882739  0.55768953  0.38487229  1
  N  N57  1  0.77832110  0.42754009  0.08929318  1
  N  N58  1  0.55159821  0.54031646  0.86455755  1
  N  N59  1  0.44698850  0.42389965  0.62187445  1
  N  N60  1  0.22861480  0.87221544  0.37211003  1
  N  N61  1  0.10795734  0.76443158  0.07964476  1
  N  N62  1  0.88153763  0.87544794  0.87277317  1
  N  N63  1  0.77456840  0.76445809  0.62459712  1
  N  N64  1  0.55771682  0.86808749  0.37231359  1
  N  N65  1  0.44569431  0.76036499  0.12057661  1
  N  N66  1  0.22453714  0.87595426  0.87160885  1
  N  N67  1  0.10982726  0.76202044  0.57759032  1
  N  N68  1  0.88199099  0.87546941  0.36974375  1
  N  N69  1  0.77643636  0.76001406  0.12095705  1
  N  N70  1  0.55405909  0.87375315  0.87163125  1
  N  N71  1  0.44490147  0.76295537  0.62406841  1
