# generated using pymatgen
data_GdAl17N18
_symmetry_space_group_name_H-M   'P 1'
_cell_length_a   9.48824942
_cell_length_b   9.51876526
_cell_length_c   10.41477422
_cell_angle_alpha   89.99971695
_cell_angle_beta   89.69749826
_cell_angle_gamma   59.88261753
_symmetry_Int_Tables_number   1
_chemical_formula_structural   GdAl17N18
_chemical_formula_sum   'Gd2 Al34 N36'
_cell_volume   813.62485735
_cell_formula_units_Z   2
loop_
 _symmetry_equiv_pos_site_id
 _symmetry_equiv_pos_as_xyz
  1  'x, y, z'
loop_
 _atom_site_type_symbol
 _atom_site_label
 _atom_site_symmetry_multiplicity
 _atom_site_fract_x
 _atom_site_fract_y
 _atom_site_fract_z
 _atom_site_occupancy
  Al  Al0  1  0.12295173  0.08169464  0.40705095  1
  Al  Al1  1  0.77764483  0.09105666  0.81749967  1
  Al  Al2  1  0.88484574  0.20264800  0.57935299  1
  Al  Al3  1  0.45121609  0.09106011  0.35515255  1
  Al  Al4  1  0.55953566  0.20595806  0.07046585  1
  Al  Al5  1  0.11415452  0.08655202  0.88054584  1
  Al  Al6  1  0.22133394  0.20599319  0.64357989  1
  Al  Al7  1  0.78178289  0.08889377  0.32047482  1
  Al  Al8  1  0.87784195  0.20444637  0.05277595  1
  Al  Al9  1  0.45073677  0.09130113  0.83152011  1
  Al  Al10  1  0.55733132  0.20747821  0.57446399  1
  Al  Al11  1  0.12295364  0.42868965  0.40705038  1
  Al  Al12  1  0.21373125  0.54762947  0.13893452  1
  Al  Al13  1  0.77539294  0.42897151  0.81519570  1
  Al  Al14  1  0.88484899  0.54582489  0.57935125  1
  Al  Al15  1  0.44433728  0.42660835  0.32082467  1
  Al  Al16  1  0.55261935  0.54035683  0.06246366  1
  Al  Al17  1  0.11415610  0.43262814  0.88054427  1
  Al  Al18  1  0.21757961  0.54512610  0.64332475  1
  Al  Al19  1  0.87784243  0.55103058  0.05277547  1
  Al  Al20  1  0.45023999  0.42528263  0.81954099  1
  Al  Al21  1  0.54770988  0.54280867  0.57236181  1
  Al  Al22  1  0.11771467  0.75781309  0.38872164  1
  Al  Al23  1  0.21373024  0.87196046  0.13893660  1
  Al  Al24  1  0.77764372  0.76463219  0.81750029  1
  Al  Al25  1  0.88233270  0.87549318  0.56704620  1
  Al  Al26  1  0.44433293  0.76239623  0.32082407  1
  Al  Al27  1  0.55953878  0.86782972  0.07046617  1
  Al  Al28  1  0.11622058  0.75855848  0.89385449  1
  Al  Al29  1  0.21758022  0.87061771  0.64332436  1
  Al  Al30  1  0.78178468  0.76265797  0.32047359  1
  Al  Al31  1  0.88074425  0.87628504  0.07204283  1
  Al  Al32  1  0.45023845  0.75782077  0.81954054  1
  Al  Al33  1  0.55733266  0.86851307  0.57446388  1
  Gd  Gd34  1  0.20970306  0.21180215  0.13959269  1
  Gd  Gd35  1  0.78126635  0.42604223  0.31902660  1
  N  N36  1  0.22147054  0.20592375  0.36048677  1
  N  N37  1  0.10329644  0.07274485  0.06148487  1
  N  N38  1  0.88055535  0.20811771  0.86662415  1
  N  N39  1  0.77784253  0.09016404  0.63454946  1
  N  N40  1  0.55793171  0.20907111  0.38715960  1
  N  N41  1  0.47242560  0.08046766  0.12431189  1
  N  N42  1  0.21816570  0.20757472  0.83277257  1
  N  N43  1  0.11881785  0.08860079  0.59148623  1
  N  N44  1  0.89661294  0.17947566  0.39604900  1
  N  N45  1  0.77917198  0.09666118  0.13355528  1
  N  N46  1  0.55594278  0.20789295  0.88254251  1
  N  N47  1  0.45202064  0.09066335  0.62624896  1
  N  N48  1  0.21417400  0.54073193  0.32578092  1
  N  N49  1  0.10330073  0.45729931  0.06148647  1
  N  N50  1  0.88056070  0.54463510  0.86662653  1
  N  N51  1  0.77594824  0.42869697  0.62654242  1
  N  N52  1  0.52320944  0.55505186  0.39160212  1
  N  N53  1  0.45179401  0.42550879  0.13226670  1
  N  N54  1  0.21741164  0.54650309  0.82615172  1
  N  N55  1  0.11882226  0.42592556  0.59148853  1
  N  N56  1  0.89662095  0.55722206  0.39604909  1
  N  N57  1  0.78252174  0.42540825  0.10112601  1
  N  N58  1  0.55205587  0.54063108  0.87838269  1
  N  N59  1  0.45131653  0.42382542  0.63438747  1
  N  N60  1  0.21416992  0.87841390  0.32578031  1
  N  N61  1  0.11517752  0.75908055  0.07918560  1
  N  N62  1  0.88099987  0.87615604  0.88465263  1
  N  N63  1  0.77784324  0.76533301  0.63454940  1
  N  N64  1  0.55793566  0.86631052  0.38715799  1
  N  N65  1  0.45179312  0.75604754  0.13226762  1
  N  N66  1  0.21741081  0.86939903  0.82615106  1
  N  N67  1  0.11767160  0.75783583  0.57445430  1
  N  N68  1  0.88284175  0.87523655  0.38005442  1
  N  N69  1  0.77917404  0.75750234  0.13355675  1
  N  N70  1  0.55594382  0.86948444  0.88254292  1
  N  N71  1  0.45131602  0.75820515  0.63438628  1
