# generated using pymatgen
data_GdAl17N18
_symmetry_space_group_name_H-M   'P 1'
_cell_length_a   9.53216020
_cell_length_b   9.51276898
_cell_length_c   10.30266153
_cell_angle_alpha   90.11434799
_cell_angle_beta   89.60108029
_cell_angle_gamma   60.03860610
_symmetry_Int_Tables_number   1
_chemical_formula_structural   GdAl17N18
_chemical_formula_sum   'Gd2 Al34 N36'
_cell_volume   809.33434840
_cell_formula_units_Z   2
loop_
 _symmetry_equiv_pos_site_id
 _symmetry_equiv_pos_as_xyz
  1  'x, y, z'
loop_
 _atom_site_type_symbol
 _atom_site_label
 _atom_site_symmetry_multiplicity
 _atom_site_fract_x
 _atom_site_fract_y
 _atom_site_fract_z
 _atom_site_occupancy
  Al  Al0  1  0.10861039  0.09059068  0.32061425  1
  Al  Al1  1  0.77602534  0.09162469  0.81010372  1
  Al  Al2  1  0.88831075  0.20070870  0.56524305  1
  Al  Al3  1  0.45527830  0.08867514  0.31618252  1
  Al  Al4  1  0.56096648  0.20479639  0.06279720  1
  Al  Al5  1  0.10434446  0.09986304  0.80067599  1
  Al  Al6  1  0.22644935  0.19901488  0.56384904  1
  Al  Al7  1  0.78153880  0.08833098  0.30989032  1
  Al  Al8  1  0.88432609  0.20280337  0.05000978  1
  Al  Al9  1  0.44623998  0.09368932  0.80268719  1
  Al  Al10  1  0.55801330  0.20528163  0.55988159  1
  Al  Al11  1  0.11582279  0.43075879  0.35043770  1
  Al  Al12  1  0.21407485  0.54866415  0.13484015  1
  Al  Al13  1  0.77324245  0.42911094  0.81038273  1
  Al  Al14  1  0.88564283  0.54486745  0.56843603  1
  Al  Al15  1  0.44955524  0.42495716  0.31291965  1
  Al  Al16  1  0.54971086  0.54217756  0.05098284  1
  Al  Al17  1  0.10508462  0.42919036  0.80232158  1
  Al  Al18  1  0.22191532  0.54479489  0.62643622  1
  Al  Al19  1  0.88512868  0.54652494  0.04544895  1
  Al  Al20  1  0.44725187  0.42445780  0.80991632  1
  Al  Al21  1  0.55280271  0.53986180  0.56333167  1
  Al  Al22  1  0.11814492  0.75848140  0.38369910  1
  Al  Al23  1  0.21597101  0.86683724  0.13511187  1
  Al  Al24  1  0.77455616  0.76737483  0.80912924  1
  Al  Al25  1  0.88077373  0.87646302  0.55927972  1
  Al  Al26  1  0.44909921  0.75942462  0.31368457  1
  Al  Al27  1  0.56163656  0.86857929  0.06290644  1
  Al  Al28  1  0.11642575  0.75845472  0.88161824  1
  Al  Al29  1  0.22112950  0.86693012  0.62698250  1
  Al  Al30  1  0.78307901  0.76342474  0.30939775  1
  Al  Al31  1  0.88168513  0.87566355  0.06164730  1
  Al  Al32  1  0.44737586  0.76170797  0.81060142  1
  Al  Al33  1  0.55810312  0.86932281  0.55939001  1
  Gd  Gd34  1  0.22571307  0.20226379  0.06155089  1
  Gd  Gd35  1  0.78575099  0.42560035  0.30335360  1
  N  N36  1  0.22664942  0.20050218  0.37097556  1
  N  N37  1  0.08497322  0.09242180  0.13298528  1
  N  N38  1  0.88722351  0.20355959  0.86300509  1
  N  N39  1  0.77583005  0.09259498  0.62450385  1
  N  N40  1  0.55931907  0.20589906  0.37345810  1
  N  N41  1  0.47815971  0.07847687  0.13396046  1
  N  N42  1  0.21995393  0.20679534  0.84136042  1
  N  N43  1  0.10885921  0.09577546  0.61425160  1
  N  N44  1  0.89866666  0.17870050  0.38443503  1
  N  N45  1  0.77795667  0.09623077  0.12090941  1
  N  N46  1  0.55261513  0.20571108  0.87255168  1
  N  N47  1  0.44930506  0.09135355  0.61584444  1
  N  N48  1  0.22375064  0.54307151  0.32558238  1
  N  N49  1  0.09001554  0.45449585  0.11358718  1
  N  N50  1  0.88460356  0.54372242  0.85747689  1
  N  N51  1  0.77695579  0.42720917  0.61849169  1
  N  N52  1  0.53410010  0.54970195  0.38031940  1
  N  N53  1  0.44963910  0.42613519  0.12129318  1
  N  N54  1  0.21679224  0.54512548  0.81633905  1
  N  N55  1  0.11198902  0.42574079  0.60636061  1
  N  N56  1  0.89860959  0.55791397  0.38689777  1
  N  N57  1  0.77516021  0.43006276  0.08455941  1
  N  N58  1  0.54881557  0.54208701  0.86543507  1
  N  N59  1  0.45190604  0.42223893  0.62134689  1
  N  N60  1  0.22452761  0.86533682  0.32539288  1
  N  N61  1  0.11492845  0.75939964  0.06877349  1
  N  N62  1  0.88202801  0.87560189  0.87313226  1
  N  N63  1  0.77514230  0.76623468  0.62420806  1
  N  N64  1  0.56075129  0.86714237  0.37291940  1
  N  N65  1  0.44954959  0.75940393  0.12057908  1
  N  N66  1  0.21743766  0.87175890  0.81940898  1
  N  N67  1  0.11367566  0.75964144  0.56875604  1
  N  N68  1  0.88537099  0.87457609  0.36977602  1
  N  N69  1  0.77852478  0.75876528  0.12060924  1
  N  N70  1  0.55231035  0.87593660  0.87287522  1
  N  N71  1  0.45153306  0.75913078  0.62171415  1
