# generated using pymatgen
data_GdAl17N18
_symmetry_space_group_name_H-M   'P 1'
_cell_length_a   9.52375307
_cell_length_b   9.52607442
_cell_length_c   10.13759766
_cell_angle_alpha   90.01096196
_cell_angle_beta   89.91058633
_cell_angle_gamma   59.99396627
_symmetry_Int_Tables_number   1
_chemical_formula_structural   GdAl17N18
_chemical_formula_sum   'Gd2 Al34 N36'
_cell_volume   796.45376338
_cell_formula_units_Z   2
loop_
 _symmetry_equiv_pos_site_id
 _symmetry_equiv_pos_as_xyz
  1  'x, y, z'
loop_
 _atom_site_type_symbol
 _atom_site_label
 _atom_site_symmetry_multiplicity
 _atom_site_fract_x
 _atom_site_fract_y
 _atom_site_fract_z
 _atom_site_occupancy
  Al  Al0  1  0.11313008  0.08703378  0.40540352  1
  Al  Al1  1  0.77554628  0.09533147  0.89468851  1
  Al  Al2  1  0.88765443  0.20470094  0.65517941  1
  Al  Al3  1  0.44712949  0.09313486  0.40520178  1
  Al  Al4  1  0.55957495  0.20411243  0.14586069  1
  Al  Al5  1  0.10959771  0.08912962  0.89102377  1
  Al  Al6  1  0.22215586  0.20556547  0.64656146  1
  Al  Al7  1  0.77928455  0.09026146  0.39414645  1
  Al  Al8  1  0.88899532  0.19604780  0.14110121  1
  Al  Al9  1  0.45096106  0.09116743  0.89121820  1
  Al  Al10  1  0.55636302  0.20715410  0.64675032  1
  Al  Al11  1  0.11320783  0.43326502  0.40538096  1
  Al  Al12  1  0.22067332  0.54386125  0.14668032  1
  Al  Al13  1  0.77743902  0.42794286  0.89782630  1
  Al  Al14  1  0.88767433  0.54095634  0.65518408  1
  Al  Al15  1  0.43836375  0.42997763  0.39555877  1
  Al  Al16  1  0.54729227  0.54306187  0.14090827  1
  Al  Al17  1  0.10964869  0.43455198  0.89097378  1
  Al  Al18  1  0.22412158  0.53992356  0.64709886  1
  Al  Al19  1  0.88907340  0.54836909  0.14098457  1
  Al  Al20  1  0.44316948  0.42692592  0.89710879  1
  Al  Al21  1  0.55304474  0.54012940  0.65481533  1
  Al  Al22  1  0.11311123  0.76016443  0.39398797  1
  Al  Al23  1  0.22063425  0.86889104  0.14668270  1
  Al  Al24  1  0.77555165  0.76245390  0.89467207  1
  Al  Al25  1  0.88978705  0.87175061  0.62583248  1
  Al  Al26  1  0.43830702  0.76513287  0.39553671  1
  Al  Al27  1  0.55956469  0.86970377  0.14581546  1
  Al  Al28  1  0.11375120  0.75977508  0.89447609  1
  Al  Al29  1  0.22410765  0.86928357  0.64710413  1
  Al  Al30  1  0.77934354  0.76394315  0.39400975  1
  Al  Al31  1  0.88885263  0.87229018  0.12301626  1
  Al  Al32  1  0.44315631  0.76322652  0.89708696  1
  Al  Al33  1  0.55639492  0.86976126  0.64670324  1
  Gd  Gd34  1  0.21992609  0.20674511  0.14507319  1
  Gd  Gd35  1  0.77655154  0.42860225  0.39163981  1
  N  N36  1  0.22092489  0.20624571  0.36776743  1
  N  N37  1  0.09894836  0.07647442  0.07478113  1
  N  N38  1  0.88682057  0.20551299  0.84158437  1
  N  N39  1  0.77667772  0.09854408  0.58641848  1
  N  N40  1  0.55469976  0.20608378  0.33792134  1
  N  N41  1  0.47322507  0.08007211  0.07762867  1
  N  N42  1  0.22228628  0.20549066  0.84209421  1
  N  N43  1  0.10876599  0.09290323  0.59501113  1
  N  N44  1  0.90632390  0.17453411  0.32749637  1
  N  N45  1  0.77398838  0.09629530  0.08398990  1
  N  N46  1  0.55570869  0.20780126  0.83450504  1
  N  N47  1  0.44797965  0.09264958  0.59360646  1
  N  N48  1  0.22208165  0.53761558  0.33739230  1
  N  N49  1  0.09903363  0.45792022  0.07470728  1
  N  N50  1  0.88683851  0.54097421  0.84158169  1
  N  N51  1  0.77712016  0.42809033  0.61270355  1
  N  N52  1  0.52260815  0.55541848  0.32621765  1
  N  N53  1  0.44229180  0.42555899  0.08604803  1
  N  N54  1  0.22501150  0.53983258  0.83419203  1
  N  N55  1  0.10877584  0.43162707  0.59500287  1
  N  N56  1  0.90650503  0.55265390  0.32733916  1
  N  N57  1  0.77864994  0.42738991  0.09459136  1
  N  N58  1  0.55289348  0.54020614  0.84445241  1
  N  N59  1  0.44562438  0.42830243  0.58672051  1
  N  N60  1  0.22201119  0.87379751  0.33739207  1
  N  N61  1  0.11455413  0.75940655  0.08633355  1
  N  N62  1  0.88968372  0.87181617  0.84616725  1
  N  N63  1  0.77670637  0.75803424  0.58631206  1
  N  N64  1  0.55471527  0.87261608  0.33787473  1
  N  N65  1  0.44225259  0.76554452  0.08602910  1
  N  N66  1  0.22498338  0.86847879  0.83420677  1
  N  N67  1  0.11549556  0.75890170  0.58531719  1
  N  N68  1  0.89026118  0.87165240  0.35019399  1
  N  N69  1  0.77398960  0.76312832  0.08395723  1
  N  N70  1  0.55572640  0.86977233  0.83447019  1
  N  N71  1  0.44561454  0.75937335  0.58670102  1
