# generated using pymatgen
data_GdAl17N18
_symmetry_space_group_name_H-M   'P 1'
_cell_length_a   9.53932575
_cell_length_b   9.52021272
_cell_length_c   10.23154472
_cell_angle_alpha   89.91693134
_cell_angle_beta   89.80918648
_cell_angle_gamma   59.97495049
_symmetry_Int_Tables_number   1
_chemical_formula_structural   GdAl17N18
_chemical_formula_sum   'Gd2 Al34 N36'
_cell_volume   804.49633593
_cell_formula_units_Z   2
loop_
 _symmetry_equiv_pos_site_id
 _symmetry_equiv_pos_as_xyz
  1  'x, y, z'
loop_
 _atom_site_type_symbol
 _atom_site_label
 _atom_site_symmetry_multiplicity
 _atom_site_fract_x
 _atom_site_fract_y
 _atom_site_fract_z
 _atom_site_occupancy
  Al  Al0  1  0.11136111  0.08456542  0.31565603  1
  Al  Al1  1  0.77672243  0.09200583  0.81060192  1
  Al  Al2  1  0.89062928  0.19871773  0.56651298  1
  Al  Al3  1  0.45276250  0.09011081  0.31647320  1
  Al  Al4  1  0.56108350  0.20473065  0.06251164  1
  Al  Al5  1  0.11224832  0.09047980  0.80268144  1
  Al  Al6  1  0.22314882  0.20427891  0.55950525  1
  Al  Al7  1  0.78077736  0.08861583  0.31074249  1
  Al  Al8  1  0.88681044  0.20026404  0.05179036  1
  Al  Al9  1  0.44649368  0.09326756  0.80313664  1
  Al  Al10  1  0.55769650  0.20517385  0.56040808  1
  Al  Al11  1  0.10813687  0.43419551  0.32191579  1
  Al  Al12  1  0.21670418  0.55216824  0.13688798  1
  Al  Al13  1  0.77719655  0.42719743  0.81165191  1
  Al  Al14  1  0.88876896  0.54387175  0.56635428  1
  Al  Al15  1  0.44852245  0.42546981  0.31654192  1
  Al  Al16  1  0.55214330  0.53980332  0.05197550  1
  Al  Al17  1  0.10727812  0.42609441  0.80021522  1
  Al  Al18  1  0.22137776  0.54410561  0.62244713  1
  Al  Al19  1  0.88520738  0.54667785  0.05132272  1
  Al  Al20  1  0.44806862  0.42410860  0.81019773  1
  Al  Al21  1  0.55148293  0.54137034  0.56603310  1
  Al  Al22  1  0.11309727  0.75822901  0.38212364  1
  Al  Al23  1  0.22331837  0.87198698  0.06342214  1
  Al  Al24  1  0.77548267  0.76448848  0.81063670  1
  Al  Al25  1  0.88055099  0.87596118  0.56210488  1
  Al  Al26  1  0.44096400  0.76382760  0.31179438  1
  Al  Al27  1  0.56060181  0.86909177  0.06206151  1
  Al  Al28  1  0.11292962  0.75446047  0.87938102  1
  Al  Al29  1  0.22793737  0.87355501  0.56178624  1
  Al  Al30  1  0.77905454  0.76501284  0.31083116  1
  Al  Al31  1  0.88082842  0.87586251  0.06322099  1
  Al  Al32  1  0.44272327  0.76375051  0.81107813  1
  Al  Al33  1  0.55693929  0.86996824  0.56063839  1
  Gd  Gd34  1  0.22306941  0.20786271  0.06429970  1
  Gd  Gd35  1  0.78127205  0.42656966  0.30974587  1
  N  N36  1  0.22233690  0.20473217  0.36512741  1
  N  N37  1  0.09386335  0.08162242  0.13041244  1
  N  N38  1  0.89117299  0.20091316  0.86342413  1
  N  N39  1  0.77555155  0.09302059  0.62445198  1
  N  N40  1  0.55925939  0.20549751  0.37318462  1
  N  N41  1  0.47641176  0.07911219  0.13216654  1
  N  N42  1  0.22206086  0.20500072  0.84487898  1
  N  N43  1  0.11296499  0.09208050  0.61736529  1
  N  N44  1  0.90134413  0.17589666  0.38346170  1
  N  N45  1  0.77792850  0.09614020  0.12109257  1
  N  N46  1  0.55409057  0.20495978  0.87208054  1
  N  N47  1  0.44723112  0.09284179  0.61451148  1
  N  N48  1  0.22446037  0.54324364  0.32974519  1
  N  N49  1  0.08665338  0.45738509  0.13321829  1
  N  N50  1  0.88964683  0.54053254  0.86321666  1
  N  N51  1  0.77817378  0.42714086  0.61762667  1
  N  N52  1  0.52993708  0.55324026  0.38173466  1
  N  N53  1  0.44980564  0.42570589  0.12195709  1
  N  N54  1  0.21930256  0.54154822  0.81984173  1
  N  N55  1  0.11038011  0.42537768  0.61252374  1
  N  N56  1  0.89876604  0.55793712  0.38488365  1
  N  N57  1  0.77788102  0.42732236  0.08888636  1
  N  N58  1  0.55171974  0.54078650  0.86502391  1
  N  N59  1  0.45124542  0.42229348  0.62084604  1
  N  N60  1  0.22867988  0.87205726  0.37271204  1
  N  N61  1  0.11052788  0.75890753  0.07204827  1
  N  N62  1  0.88144609  0.87520648  0.87234924  1
  N  N63  1  0.77467464  0.76442218  0.62461365  1
  N  N64  1  0.55790635  0.86796149  0.37252102  1
  N  N65  1  0.44538196  0.76036688  0.12078621  1
  N  N66  1  0.22460086  0.87580385  0.87131347  1
  N  N67  1  0.11047646  0.76117267  0.57367704  1
  N  N68  1  0.88278569  0.87504459  0.37010215  1
  N  N69  1  0.77653951  0.75979980  0.12101754  1
  N  N70  1  0.55388802  0.87389478  0.87180105  1
  N  N71  1  0.44492755  0.76285919  0.62422095  1
