# generated using pymatgen
data_GdAl17N18
_symmetry_space_group_name_H-M   'P 1'
_cell_length_a   9.52572297
_cell_length_b   9.52833747
_cell_length_c   10.14242686
_cell_angle_alpha   89.98845943
_cell_angle_beta   89.89782901
_cell_angle_gamma   59.99924188
_symmetry_Int_Tables_number   1
_chemical_formula_structural   GdAl17N18
_chemical_formula_sum   'Gd2 Al34 N36'
_cell_volume   797.22965936
_cell_formula_units_Z   2
loop_
 _symmetry_equiv_pos_site_id
 _symmetry_equiv_pos_as_xyz
  1  'x, y, z'
loop_
 _atom_site_type_symbol
 _atom_site_label
 _atom_site_symmetry_multiplicity
 _atom_site_fract_x
 _atom_site_fract_y
 _atom_site_fract_z
 _atom_site_occupancy
  Al  Al0  1  0.11084807  0.08517462  0.31745329  1
  Al  Al1  1  0.77564646  0.09353807  0.81145176  1
  Al  Al2  1  0.89028921  0.19873518  0.56762818  1
  Al  Al3  1  0.45256975  0.09037937  0.31775863  1
  Al  Al4  1  0.56154563  0.20347366  0.06309457  1
  Al  Al5  1  0.11221454  0.09246201  0.80339733  1
  Al  Al6  1  0.22242031  0.20541120  0.56080877  1
  Al  Al7  1  0.77917545  0.08964939  0.31188224  1
  Al  Al8  1  0.88674159  0.20018479  0.05325479  1
  Al  Al9  1  0.44680139  0.09320520  0.80388959  1
  Al  Al10  1  0.55671075  0.20640864  0.56154325  1
  Al  Al11  1  0.11074889  0.43738911  0.31758380  1
  Al  Al12  1  0.22092771  0.54256855  0.06485255  1
  Al  Al13  1  0.77771816  0.42773652  0.81211484  1
  Al  Al14  1  0.89022413  0.54422771  0.56768147  1
  Al  Al15  1  0.44046706  0.42918257  0.31276620  1
  Al  Al16  1  0.55277493  0.54026822  0.05344816  1
  Al  Al17  1  0.11218870  0.42856602  0.80339030  1
  Al  Al18  1  0.22468313  0.53729519  0.56417420  1
  Al  Al19  1  0.88664751  0.54651544  0.05328087  1
  Al  Al20  1  0.44356529  0.42608493  0.81186486  1
  Al  Al21  1  0.54891652  0.54215035  0.56744061  1
  Al  Al22  1  0.11097898  0.76117744  0.34479830  1
  Al  Al23  1  0.22100126  0.86992105  0.06469198  1
  Al  Al24  1  0.77562885  0.76405493  0.81145550  1
  Al  Al25  1  0.88537613  0.87392057  0.56439291  1
  Al  Al26  1  0.44045867  0.76365049  0.31271201  1
  Al  Al27  1  0.56147847  0.86837952  0.06306739  1
  Al  Al28  1  0.11004656  0.76157226  0.84157303  1
  Al  Al29  1  0.22469115  0.87127067  0.56415764  1
  Al  Al30  1  0.77912300  0.76451219  0.31188311  1
  Al  Al31  1  0.88596300  0.87370159  0.06475331  1
  Al  Al32  1  0.44360059  0.76353169  0.81181349  1
  Al  Al33  1  0.55669311  0.87012446  0.56151888  1
  Gd  Gd34  1  0.22328991  0.20522352  0.06697859  1
  Gd  Gd35  1  0.77996765  0.42666375  0.31363027  1
  N  N36  1  0.22120279  0.20608227  0.36410542  1
  N  N37  1  0.09351467  0.08097147  0.13122408  1
  N  N38  1  0.89111266  0.20167463  0.86369183  1
  N  N39  1  0.77476535  0.09365312  0.62447206  1
  N  N40  1  0.55764228  0.20781290  0.37265325  1
  N  N41  1  0.47722605  0.07805602  0.13245114  1
  N  N42  1  0.22273263  0.20525114  0.84600688  1
  N  N43  1  0.11299413  0.09251466  0.61711282  1
  N  N44  1  0.90096766  0.17538552  0.38390597  1
  N  N45  1  0.77775051  0.09598431  0.12131177  1
  N  N46  1  0.55425044  0.20503643  0.87199659  1
  N  N47  1  0.44697079  0.09311610  0.61424683  1
  N  N48  1  0.22640547  0.53615484  0.37449813  1
  N  N49  1  0.09329748  0.45914562  0.13140501  1
  N  N50  1  0.89109710  0.54045282  0.86369943  1
  N  N51  1  0.77758726  0.42778399  0.61660606  1
  N  N52  1  0.52663442  0.55333685  0.38106288  1
  N  N53  1  0.44529360  0.42726826  0.12084942  1
  N  N54  1  0.22365037  0.53375981  0.87207847  1
  N  N55  1  0.11296682  0.42771474  0.61711182  1
  N  N56  1  0.90085426  0.55701149  0.38398223  1
  N  N57  1  0.77895569  0.42717691  0.09097416  1
  N  N58  1  0.55186328  0.54067120  0.86509424  1
  N  N59  1  0.44430457  0.42541155  0.62421520  1
  N  N60  1  0.22640967  0.87078035  0.37446079  1
  N  N61  1  0.10943973  0.76201849  0.10139090  1
  N  N62  1  0.88329010  0.87496928  0.87303863  1
  N  N63  1  0.77473274  0.76480077  0.62448646  1
  N  N64  1  0.55759223  0.86788361  0.37263403  1
  N  N65  1  0.44531484  0.76072329  0.12079377  1
  N  N66  1  0.22368281  0.87576843  0.87195620  1
  N  N67  1  0.11012657  0.76154195  0.60625353  1
  N  N68  1  0.88443095  0.87442972  0.37207446  1
  N  N69  1  0.77766852  0.75967095  0.12130950  1
  N  N70  1  0.55423809  0.87394448  0.87197239  1
  N  N71  1  0.44432422  0.76345944  0.62417935  1
