# generated using pymatgen
data_GdAl17N18
_symmetry_space_group_name_H-M   'P 1'
_cell_length_a   9.53506860
_cell_length_b   9.53061251
_cell_length_c   10.18802270
_cell_angle_alpha   90.10508097
_cell_angle_beta   89.92716402
_cell_angle_gamma   60.04298909
_symmetry_Int_Tables_number   1
_chemical_formula_structural   GdAl17N18
_chemical_formula_sum   'Gd2 Al34 N36'
_cell_volume   802.14157064
_cell_formula_units_Z   2
loop_
 _symmetry_equiv_pos_site_id
 _symmetry_equiv_pos_as_xyz
  1  'x, y, z'
loop_
 _atom_site_type_symbol
 _atom_site_label
 _atom_site_symmetry_multiplicity
 _atom_site_fract_x
 _atom_site_fract_y
 _atom_site_fract_z
 _atom_site_occupancy
  Al  Al0  1  0.11305019  0.08752231  0.40688019  1
  Al  Al1  1  0.77237013  0.10068109  0.89632342  1
  Al  Al2  1  0.88754404  0.20318376  0.65572980  1
  Al  Al3  1  0.44750065  0.09287687  0.40690040  1
  Al  Al4  1  0.55860535  0.20505080  0.14679437  1
  Al  Al5  1  0.10915347  0.08920739  0.89186351  1
  Al  Al6  1  0.22234636  0.20477981  0.64661639  1
  Al  Al7  1  0.77668387  0.09641156  0.39444407  1
  Al  Al8  1  0.88836815  0.19676840  0.14283594  1
  Al  Al9  1  0.44856753  0.09301371  0.89192588  1
  Al  Al10  1  0.55709755  0.20629939  0.64730432  1
  Al  Al11  1  0.11455153  0.43271913  0.40726085  1
  Al  Al12  1  0.22110076  0.54366411  0.14764468  1
  Al  Al13  1  0.77666789  0.42667938  0.89833848  1
  Al  Al14  1  0.88867952  0.54000520  0.65845764  1
  Al  Al15  1  0.43937268  0.42983640  0.39674590  1
  Al  Al16  1  0.54739468  0.54280664  0.14188245  1
  Al  Al17  1  0.11138541  0.43262383  0.89152452  1
  Al  Al18  1  0.22388051  0.54018954  0.64759481  1
  Al  Al19  1  0.89130676  0.54320268  0.13626893  1
  Al  Al20  1  0.44290860  0.42696805  0.89781892  1
  Al  Al21  1  0.55331743  0.54000365  0.65531481  1
  Al  Al22  1  0.11961168  0.75726907  0.39448870  1
  Al  Al23  1  0.21973599  0.86939471  0.14776336  1
  Al  Al24  1  0.77444202  0.76206424  0.87878888  1
  Al  Al25  1  0.88704508  0.86789383  0.58074046  1
  Al  Al26  1  0.43901653  0.76557529  0.39665141  1
  Al  Al27  1  0.55304419  0.87290546  0.14174557  1
  Al  Al28  1  0.11873435  0.75688164  0.89585086  1
  Al  Al29  1  0.22344786  0.86890613  0.64758657  1
  Al  Al30  1  0.78081352  0.76686509  0.34579889  1
  Al  Al31  1  0.88891726  0.87294159  0.08072509  1
  Al  Al32  1  0.44157587  0.76283859  0.89786755  1
  Al  Al33  1  0.55706289  0.86944703  0.64871482  1
  Gd  Gd34  1  0.21884535  0.20747220  0.14788244  1
  Gd  Gd35  1  0.77731880  0.43181399  0.39497623  1
  N  N36  1  0.22171516  0.20584269  0.36963396  1
  N  N37  1  0.09832816  0.07704977  0.07538420  1
  N  N38  1  0.88696237  0.20472277  0.84156194  1
  N  N39  1  0.77541921  0.10037983  0.58701486  1
  N  N40  1  0.55423860  0.20607781  0.33814063  1
  N  N41  1  0.47040513  0.08295851  0.07709406  1
  N  N42  1  0.22168840  0.20512904  0.84134541  1
  N  N43  1  0.10862608  0.09232127  0.59540472  1
  N  N44  1  0.90589398  0.17710815  0.32865713  1
  N  N45  1  0.77115561  0.10112209  0.08664080  1
  N  N46  1  0.55497185  0.20791618  0.83465339  1
  N  N47  1  0.44818834  0.09207934  0.59425611  1
  N  N48  1  0.22343744  0.53654113  0.33780991  1
  N  N49  1  0.10147031  0.45643406  0.07376768  1
  N  N50  1  0.88841142  0.53725773  0.84603194  1
  N  N51  1  0.77788201  0.42715056  0.61487469  1
  N  N52  1  0.52405584  0.55528581  0.32703334  1
  N  N53  1  0.44213463  0.42592882  0.08638811  1
  N  N54  1  0.22524046  0.53916886  0.83412621  1
  N  N55  1  0.10910629  0.43088260  0.59585128  1
  N  N56  1  0.91228598  0.54680986  0.32291940  1
  N  N57  1  0.77780058  0.42679863  0.09353317  1
  N  N58  1  0.55238743  0.54014660  0.84450385  1
  N  N59  1  0.44582795  0.42789918  0.58711585  1
  N  N60  1  0.22274030  0.87455633  0.33770219  1
  N  N61  1  0.11790589  0.75754617  0.08903083  1
  N  N62  1  0.89009579  0.87207936  0.88296586  1
  N  N63  1  0.77764210  0.75762362  0.61163703  1
  N  N64  1  0.55129672  0.87523527  0.33467602  1
  N  N65  1  0.44052546  0.76492407  0.08568739  1
  N  N66  1  0.22429756  0.86861856  0.83424653  1
  N  N67  1  0.11812218  0.75715749  0.58586441  1
  N  N68  1  0.89144385  0.87203169  0.38033180  1
  N  N69  1  0.77298355  0.76403081  0.10294352  1
  N  N70  1  0.55114538  0.87188676  0.83801439  1
  N  N71  1  0.44562179  0.75958303  0.58710692  1
