# generated using pymatgen
data_GdAl17N18
_symmetry_space_group_name_H-M   'P 1'
_cell_length_a   9.52123813
_cell_length_b   9.52413866
_cell_length_c   10.13369668
_cell_angle_alpha   89.98987634
_cell_angle_beta   89.90085673
_cell_angle_gamma   59.99828572
_symmetry_Int_Tables_number   1
_chemical_formula_structural   GdAl17N18
_chemical_formula_sum   'Gd2 Al34 N36'
_cell_volume   795.80997714
_cell_formula_units_Z   2
loop_
 _symmetry_equiv_pos_site_id
 _symmetry_equiv_pos_as_xyz
  1  'x, y, z'
loop_
 _atom_site_type_symbol
 _atom_site_label
 _atom_site_symmetry_multiplicity
 _atom_site_fract_x
 _atom_site_fract_y
 _atom_site_fract_z
 _atom_site_occupancy
  Al  Al0  1  0.11091072  0.08491321  0.31776939  1
  Al  Al1  1  0.77588320  0.09327224  0.81176362  1
  Al  Al2  1  0.89025320  0.19877378  0.56774870  1
  Al  Al3  1  0.45258063  0.09037140  0.31785980  1
  Al  Al4  1  0.56158119  0.20344787  0.06325087  1
  Al  Al5  1  0.11222647  0.09227253  0.80368047  1
  Al  Al6  1  0.22242584  0.20541381  0.56095404  1
  Al  Al7  1  0.77930993  0.08941074  0.31218050  1
  Al  Al8  1  0.88673712  0.20019858  0.05335460  1
  Al  Al9  1  0.44683539  0.09319346  0.80392041  1
  Al  Al10  1  0.55670878  0.20641743  0.56169953  1
  Al  Al11  1  0.11082652  0.43757514  0.31787146  1
  Al  Al12  1  0.22021456  0.54388409  0.06456400  1
  Al  Al13  1  0.77770286  0.42775201  0.81218350  1
  Al  Al14  1  0.89019868  0.54423169  0.56779139  1
  Al  Al15  1  0.44010621  0.42941538  0.31303355  1
  Al  Al16  1  0.55272210  0.54029244  0.05356555  1
  Al  Al17  1  0.11220267  0.42875062  0.80367309  1
  Al  Al18  1  0.22403755  0.53858230  0.56388531  1
  Al  Al19  1  0.88665673  0.54648412  0.05337537  1
  Al  Al20  1  0.44335964  0.42628249  0.81215121  1
  Al  Al21  1  0.54889342  0.54216616  0.56754306  1
  Al  Al22  1  0.11103496  0.76115051  0.32893791  1
  Al  Al23  1  0.22027642  0.86929717  0.06445094  1
  Al  Al24  1  0.77586811  0.76409135  0.81176630  1
  Al  Al25  1  0.88665712  0.87328578  0.56405767  1
  Al  Al26  1  0.44010471  0.76377454  0.31299469  1
  Al  Al27  1  0.56152331  0.86835089  0.06322897  1
  Al  Al28  1  0.11010234  0.76155260  0.82665888  1
  Al  Al29  1  0.22404411  0.87063450  0.56387015  1
  Al  Al30  1  0.77926519  0.76461062  0.31218138  1
  Al  Al31  1  0.88734891  0.87300241  0.06469590  1
  Al  Al32  1  0.44338610  0.76355610  0.81210940  1
  Al  Al33  1  0.55669375  0.87012529  0.56168114  1
  Gd  Gd34  1  0.22332823  0.20516931  0.06719548  1
  Gd  Gd35  1  0.77990847  0.42669236  0.31367638  1
  N  N36  1  0.22121391  0.20607522  0.36412972  1
  N  N37  1  0.09358170  0.08073446  0.13119967  1
  N  N38  1  0.89108839  0.20173733  0.86371916  1
  N  N39  1  0.77499920  0.09331429  0.62454306  1
  N  N40  1  0.55759355  0.20785539  0.37271239  1
  N  N41  1  0.47729290  0.07801571  0.13254044  1
  N  N42  1  0.22275220  0.20524716  0.84604573  1
  N  N43  1  0.11309284  0.09219199  0.61715862  1
  N  N44  1  0.90088632  0.17550413  0.38397103  1
  N  N45  1  0.77797357  0.09566375  0.12132822  1
  N  N46  1  0.55425856  0.20501085  0.87203462  1
  N  N47  1  0.44696763  0.09312300  0.61428050  1
  N  N48  1  0.22540843  0.53802861  0.37487971  1
  N  N49  1  0.09340022  0.45925970  0.13134372  1
  N  N50  1  0.89107421  0.54042538  0.86372515  1
  N  N51  1  0.77756878  0.42780255  0.61663279  1
  N  N52  1  0.52664358  0.55333061  0.38111464  1
  N  N53  1  0.44500682  0.42742817  0.12082527  1
  N  N54  1  0.22273214  0.53566730  0.87259287  1
  N  N55  1  0.11306765  0.42794672  0.61715765  1
  N  N56  1  0.90079110  0.55696597  0.38403219  1
  N  N57  1  0.77893883  0.42718211  0.09094586  1
  N  N58  1  0.55191624  0.54065206  0.86512469  1
  N  N59  1  0.44398052  0.42562454  0.62427082  1
  N  N60  1  0.22541436  0.86990062  0.37484894  1
  N  N61  1  0.10976869  0.76183792  0.11380884  1
  N  N62  1  0.88531953  0.87396083  0.87362599  1
  N  N63  1  0.77497210  0.76491309  0.62455466  1
  N  N64  1  0.55755222  0.86788666  0.37269940  1
  N  N65  1  0.44502885  0.76084299  0.12078579  1
  N  N66  1  0.22275855  0.87480131  0.87250371  1
  N  N67  1  0.11021955  0.76149744  0.61692098  1
  N  N68  1  0.88608754  0.87360351  0.37252910  1
  N  N69  1  0.77790342  0.75974786  0.12132678  1
  N  N70  1  0.55424780  0.87397081  0.87201415  1
  N  N71  1  0.44399623  0.76358332  0.62424088  1
