# generated using pymatgen
data_GdAl17N18
_symmetry_space_group_name_H-M   'P 1'
_cell_length_a   9.48561457
_cell_length_b   9.50871198
_cell_length_c   10.40762647
_cell_angle_alpha   90.00000035
_cell_angle_beta   89.52605456
_cell_angle_gamma   59.91941920
_symmetry_Int_Tables_number   1
_chemical_formula_structural   GdAl17N18
_chemical_formula_sum   'Gd2 Al34 N36'
_cell_volume   812.26256455
_cell_formula_units_Z   2
loop_
 _symmetry_equiv_pos_site_id
 _symmetry_equiv_pos_as_xyz
  1  'x, y, z'
loop_
 _atom_site_type_symbol
 _atom_site_label
 _atom_site_symmetry_multiplicity
 _atom_site_fract_x
 _atom_site_fract_y
 _atom_site_fract_z
 _atom_site_occupancy
  Al  Al0  1  0.12526915  0.08270943  0.40435414  1
  Al  Al1  1  0.77556268  0.09127929  0.81731938  1
  Al  Al2  1  0.88497875  0.20203936  0.57818787  1
  Al  Al3  1  0.45805875  0.08760058  0.32700019  1
  Al  Al4  1  0.55978592  0.20450808  0.07253353  1
  Al  Al5  1  0.11193174  0.08652686  0.87911700  1
  Al  Al6  1  0.21967900  0.20679049  0.64439551  1
  Al  Al7  1  0.78313617  0.08838540  0.32072000  1
  Al  Al8  1  0.87611772  0.20445450  0.05186081  1
  Al  Al9  1  0.45101401  0.09112298  0.82273269  1
  Al  Al10  1  0.55544806  0.20549132  0.57150648  1
  Al  Al11  1  0.12526916  0.42528140  0.40435415  1
  Al  Al12  1  0.21411452  0.54770386  0.13921733  1
  Al  Al13  1  0.77431692  0.42947151  0.81413770  1
  Al  Al14  1  0.88497874  0.54624184  0.57818787  1
  Al  Al15  1  0.44496495  0.42600436  0.32131705  1
  Al  Al16  1  0.55250393  0.54037801  0.06206588  1
  Al  Al17  1  0.11193171  0.43480140  0.87911699  1
  Al  Al18  1  0.21865291  0.54419053  0.64197183  1
  Al  Al19  1  0.87611774  0.55268773  0.05186081  1
  Al  Al20  1  0.44982806  0.42402652  0.81985871  1
  Al  Al21  1  0.54836041  0.54244976  0.57274134  1
  Al  Al22  1  0.11839748  0.75743125  0.38879245  1
  Al  Al23  1  0.21411452  0.87144161  0.13921734  1
  Al  Al24  1  0.77556267  0.76641802  0.81731938  1
  Al  Al25  1  0.88260509  0.87532744  0.56703109  1
  Al  Al26  1  0.44496496  0.76229062  0.32131706  1
  Al  Al27  1  0.55978593  0.86896594  0.07253353  1
  Al  Al28  1  0.11640231  0.75842885  0.89276819  1
  Al  Al29  1  0.21865295  0.87041652  0.64197182  1
  Al  Al30  1  0.78313617  0.76173836  0.32072000  1
  Al  Al31  1  0.88245792  0.87540102  0.07176970  1
  Al  Al32  1  0.44982809  0.75940537  0.81985871  1
  Al  Al33  1  0.55544808  0.87232057  0.57150648  1
  Gd  Gd34  1  0.20677749  0.21324125  0.13123881  1
  Gd  Gd35  1  0.78179973  0.42573010  0.31872556  1
  N  N36  1  0.22353640  0.20486179  0.35162381  1
  N  N37  1  0.10119377  0.07140832  0.06030868  1
  N  N38  1  0.87849454  0.20862157  0.86578023  1
  N  N39  1  0.77631443  0.09057036  0.63383281  1
  N  N40  1  0.55778763  0.20702402  0.38503082  1
  N  N41  1  0.47642639  0.07841677  0.14080834  1
  N  N42  1  0.21604804  0.20860598  0.83479773  1
  N  N43  1  0.11967578  0.08879230  0.58973544  1
  N  N44  1  0.89822434  0.17896454  0.39511056  1
  N  N45  1  0.77929380  0.09578084  0.13332395  1
  N  N46  1  0.55342721  0.20645332  0.88532142  1
  N  N47  1  0.45237740  0.09044127  0.63506902  1
  N  N48  1  0.21495283  0.54066731  0.32566129  1
  N  N49  1  0.10119377  0.46065789  0.06030868  1
  N  N50  1  0.87849452  0.54614386  0.86578023  1
  N  N51  1  0.77653653  0.42836170  0.62577816  1
  N  N52  1  0.52369798  0.55478098  0.39189098  1
  N  N53  1  0.45212338  0.42479684  0.13217124  1
  N  N54  1  0.21708559  0.54645585  0.82485710  1
  N  N55  1  0.11967576  0.42479190  0.58973544  1
  N  N56  1  0.89822434  0.55607105  0.39511056  1
  N  N57  1  0.78256486  0.42534755  0.10045979  1
  N  N58  1  0.55092887  0.54116554  0.87782928  1
  N  N59  1  0.45238357  0.42188066  0.63397207  1
  N  N60  1  0.21495284  0.87763983  0.32566130  1
  N  N61  1  0.11635248  0.75845375  0.07838283  1
  N  N62  1  0.88110352  0.87607823  0.88426918  1
  N  N63  1  0.77631444  0.76637517  0.63383281  1
  N  N64  1  0.55778764  0.86844827  0.38503083  1
  N  N65  1  0.45212338  0.75633972  0.13217124  1
  N  N66  1  0.21708563  0.86971854  0.82485710  1
  N  N67  1  0.11813870  0.75756064  0.57435407  1
  N  N68  1  0.88406504  0.87459745  0.37985578  1
  N  N69  1  0.77929380  0.75818532  0.13332394  1
  N  N70  1  0.55342720  0.87337944  0.88532142  1
  N  N71  1  0.45238361  0.75899569  0.63397207  1
