# generated using pymatgen
data_Zn3WN4
_symmetry_space_group_name_H-M   'P 1'
_cell_length_a   5.56583832
_cell_length_b   5.74374702
_cell_length_c   6.63636882
_cell_angle_alpha   89.95337986
_cell_angle_beta   89.75908084
_cell_angle_gamma   88.97016573
_symmetry_Int_Tables_number   1
_chemical_formula_structural   Zn3WN4
_chemical_formula_sum   'Zn6 W2 N8'
_cell_volume   212.12032764
_cell_formula_units_Z   2
loop_
 _symmetry_equiv_pos_site_id
 _symmetry_equiv_pos_as_xyz
  1  'x, y, z'
loop_
 _atom_site_type_symbol
 _atom_site_label
 _atom_site_symmetry_multiplicity
 _atom_site_fract_x
 _atom_site_fract_y
 _atom_site_fract_z
 _atom_site_occupancy
  Zn  Zn0  1  0.08621598  0.84079381  0.24330057  1
  Zn  Zn1  1  0.15326224  0.84444570  0.75041402  1
  Zn  Zn2  1  0.68098495  0.67034102  0.99217501  1
  Zn  Zn3  1  0.68002881  0.17778479  0.75074130  1
  Zn  Zn4  1  0.67135779  0.18331295  0.24057499  1
  Zn  Zn5  1  0.05643075  0.35445483  0.49463900  1
  W  W6  1  0.18913190  0.33873959  0.99360978  1
  W  W7  1  0.54249018  0.68200722  0.49330462  1
  N  N8  1  0.07494429  0.18212381  0.76227982  1
  N  N9  1  0.07576092  0.18621050  0.22568610  1
  N  N10  1  0.06875687  0.64916386  0.98983575  1
  N  N11  1  0.60415505  0.84073449  0.73485178  1
  N  N12  1  0.64575830  0.83826632  0.26064395  1
  N  N13  1  0.53309748  0.34276671  0.99453371  1
  N  N14  1  0.19327667  0.67283199  0.48768168  1
  N  N15  1  0.66496516  0.37380071  0.49683898  1
