# generated using pymatgen
data_Zn3WN4
_symmetry_space_group_name_H-M   'P 1'
_cell_length_a   5.43205148
_cell_length_b   5.76195088
_cell_length_c   6.68197740
_cell_angle_alpha   90.00005661
_cell_angle_beta   90.00006347
_cell_angle_gamma   89.40616753
_symmetry_Int_Tables_number   1
_chemical_formula_structural   Zn3WN4
_chemical_formula_sum   'Zn6 W2 N8'
_cell_volume   209.12940654
_cell_formula_units_Z   2
loop_
 _symmetry_equiv_pos_site_id
 _symmetry_equiv_pos_as_xyz
  1  'x, y, z'
loop_
 _atom_site_type_symbol
 _atom_site_label
 _atom_site_symmetry_multiplicity
 _atom_site_fract_x
 _atom_site_fract_y
 _atom_site_fract_z
 _atom_site_occupancy
  Zn  Zn0  1  0.06183211  0.84401073  0.24526283  1
  Zn  Zn1  1  0.06183225  0.84401076  0.74362574  1
  Zn  Zn2  1  0.64413072  0.67996727  0.99444472  1
  Zn  Zn3  1  0.58828170  0.17501388  0.73447238  1
  Zn  Zn4  1  0.58827510  0.17501263  0.25441659  1
  Zn  Zn5  1  0.05783618  0.34684751  0.49444303  1
  W  W6  1  0.20803101  0.34182209  0.99444420  1
  W  W7  1  0.55119347  0.68141729  0.49444489  1
  N  N8  1  0.13934976  0.18295916  0.75393831  1
  N  N9  1  0.13935350  0.18295790  0.23495056  1
  N  N10  1  0.10782077  0.65411564  0.99444442  1
  N  N11  1  0.66639493  0.83678806  0.72705243  1
  N  N12  1  0.66639550  0.83678805  0.26183782  1
  N  N13  1  0.56905640  0.34509199  0.99444435  1
  N  N14  1  0.20326341  0.68090057  0.49444449  1
  N  N15  1  0.66756964  0.37007476  0.49444427  1
