# generated using pymatgen
data_Zn3WN4
_symmetry_space_group_name_H-M   'P 1'
_cell_length_a   5.38035733
_cell_length_b   5.70417464
_cell_length_c   6.59229944
_cell_angle_alpha   90.00001018
_cell_angle_beta   89.99995860
_cell_angle_gamma   90.00013568
_symmetry_Int_Tables_number   1
_chemical_formula_structural   Zn3WN4
_chemical_formula_sum   'Zn6 W2 N8'
_cell_volume   202.32095184
_cell_formula_units_Z   2
loop_
 _symmetry_equiv_pos_site_id
 _symmetry_equiv_pos_as_xyz
  1  'x, y, z'
loop_
 _atom_site_type_symbol
 _atom_site_label
 _atom_site_symmetry_multiplicity
 _atom_site_fract_x
 _atom_site_fract_y
 _atom_site_fract_z
 _atom_site_occupancy
  Zn  Zn0  1  0.21973548  0.84340728  0.24313545  1
  Zn  Zn1  1  0.21973550  0.84340788  0.74575369  1
  Zn  Zn2  1  0.71889162  0.67805574  0.99444310  1
  Zn  Zn3  1  0.71973611  0.17881896  0.74313535  1
  Zn  Zn4  1  0.71973417  0.17881809  0.24575374  1
  Zn  Zn5  1  0.21889156  0.34416743  0.49444256  1
  W  W6  1  0.21868359  0.34105359  0.99444462  1
  W  W7  1  0.71868393  0.68116716  0.49444478  1
  N  N8  1  0.10248820  0.18427803  0.75753449  1
  N  N9  1  0.10248700  0.18427703  0.23135416  1
  N  N10  1  0.10203916  0.65474083  0.99444482  1
  N  N11  1  0.60248880  0.83794401  0.73135416  1
  N  N12  1  0.60248897  0.83794284  0.25753514  1
  N  N13  1  0.56926964  0.34007051  0.99444492  1
  N  N14  1  0.06927012  0.68214944  0.49444504  1
  N  N15  1  0.60203799  0.36747913  0.49444506  1
