# generated using pymatgen
data_Zn3WN4
_symmetry_space_group_name_H-M   'P 1'
_cell_length_a   5.35585767
_cell_length_b   5.71525978
_cell_length_c   6.60844040
_cell_angle_alpha   90.00002983
_cell_angle_beta   89.99995527
_cell_angle_gamma   89.95158835
_symmetry_Int_Tables_number   1
_chemical_formula_structural   Zn3WN4
_chemical_formula_sum   'Zn6 W2 N8'
_cell_volume   202.28506767
_cell_formula_units_Z   2
loop_
 _symmetry_equiv_pos_site_id
 _symmetry_equiv_pos_as_xyz
  1  'x, y, z'
loop_
 _atom_site_type_symbol
 _atom_site_label
 _atom_site_symmetry_multiplicity
 _atom_site_fract_x
 _atom_site_fract_y
 _atom_site_fract_z
 _atom_site_occupancy
  Zn  Zn0  1  0.18353230  0.84355243  0.24282466  1
  Zn  Zn1  1  0.18353246  0.84355291  0.74606507  1
  Zn  Zn2  1  0.68295274  0.67849039  0.99444248  1
  Zn  Zn3  1  0.68381948  0.17857147  0.74277486  1
  Zn  Zn4  1  0.68381945  0.17857090  0.24611404  1
  Zn  Zn5  1  0.18273989  0.34365307  0.49444322  1
  W  W6  1  0.18371164  0.34115042  0.99444469  1
  W  W7  1  0.68335194  0.68104719  0.49444450  1
  N  N8  1  0.06827156  0.18452929  0.75773846  1
  N  N9  1  0.06827115  0.18452853  0.23115058  1
  N  N10  1  0.06778225  0.65477989  0.99444490  1
  N  N11  1  0.56807395  0.83780962  0.73121416  1
  N  N12  1  0.56807445  0.83780862  0.25767461  1
  N  N13  1  0.53575127  0.34010435  0.99444492  1
  N  N14  1  0.03539512  0.68215100  0.49444507  1
  N  N15  1  0.56767822  0.36747818  0.49444482  1
