# generated using pymatgen
data_Zn3WN4
_symmetry_space_group_name_H-M   'P 1'
_cell_length_a   5.34839604
_cell_length_b   5.78123159
_cell_length_c   6.70214209
_cell_angle_alpha   89.99997689
_cell_angle_beta   89.99989920
_cell_angle_gamma   89.70146317
_symmetry_Int_Tables_number   1
_chemical_formula_structural   Zn3WN4
_chemical_formula_sum   'Zn6 W2 N8'
_cell_volume   207.22953935
_cell_formula_units_Z   2
loop_
 _symmetry_equiv_pos_site_id
 _symmetry_equiv_pos_as_xyz
  1  'x, y, z'
loop_
 _atom_site_type_symbol
 _atom_site_label
 _atom_site_symmetry_multiplicity
 _atom_site_fract_x
 _atom_site_fract_y
 _atom_site_fract_z
 _atom_site_occupancy
  Zn  Zn0  1  0.14893556  0.84864154  0.23393515  1
  Zn  Zn1  1  0.14894178  0.84864243  0.75495516  1
  Zn  Zn2  1  0.67985230  0.67651520  0.99444427  1
  Zn  Zn3  1  0.68011254  0.17866683  0.74224764  1
  Zn  Zn4  1  0.68011183  0.17866726  0.24663769  1
  Zn  Zn5  1  0.14563556  0.33416957  0.49444543  1
  W  W6  1  0.18819489  0.34173203  0.99444628  1
  W  W7  1  0.52710160  0.68117875  0.49444274  1
  N  N8  1  0.07415849  0.18751611  0.76019301  1
  N  N9  1  0.07415989  0.18751671  0.22869665  1
  N  N10  1  0.07451859  0.65297216  0.99444496  1
  N  N11  1  0.59985110  0.83840846  0.73461870  1
  N  N12  1  0.59985246  0.83840775  0.25427134  1
  N  N13  1  0.54004398  0.34058545  0.99444356  1
  N  N14  1  0.16001743  0.68226781  0.49444479  1
  N  N15  1  0.59912934  0.36189020  0.49444369  1
