# generated using pymatgen
data_Zn3WN4
_symmetry_space_group_name_H-M   'P 1'
_cell_length_a   5.33744581
_cell_length_b   5.72348801
_cell_length_c   6.61996960
_cell_angle_alpha   90.00009031
_cell_angle_beta   90.00003283
_cell_angle_gamma   89.93617450
_symmetry_Int_Tables_number   1
_chemical_formula_structural   Zn3WN4
_chemical_formula_sum   'Zn6 W2 N8'
_cell_volume   202.23204893
_cell_formula_units_Z   2
loop_
 _symmetry_equiv_pos_site_id
 _symmetry_equiv_pos_as_xyz
  1  'x, y, z'
loop_
 _atom_site_type_symbol
 _atom_site_label
 _atom_site_symmetry_multiplicity
 _atom_site_fract_x
 _atom_site_fract_y
 _atom_site_fract_z
 _atom_site_occupancy
  Zn  Zn0  1  0.05740847  0.84381535  0.24251623  1
  Zn  Zn1  1  0.05740864  0.84381565  0.74637384  1
  Zn  Zn2  1  0.55870047  0.67891103  0.99444267  1
  Zn  Zn3  1  0.55787205  0.17854956  0.74259718  1
  Zn  Zn4  1  0.55787327  0.17854915  0.24629226  1
  Zn  Zn5  1  0.05827114  0.34339960  0.49444313  1
  W  W6  1  0.05748666  0.34126208  0.99444441  1
  W  W7  1  0.55685862  0.68101053  0.49444459  1
  N  N8  1  0.17205522  0.18451187  0.75776479  1
  N  N9  1  0.17205611  0.18451110  0.23112357  1
  N  N10  1  0.17245744  0.65475777  0.99444482  1
  N  N11  1  0.67173916  0.83754585  0.73101552  1
  N  N12  1  0.67173880  0.83754487  0.25787320  1
  N  N13  1  0.70435941  0.34007477  0.99444492  1
  N  N14  1  0.20375016  0.68209067  0.49444495  1
  N  N15  1  0.67222669  0.36742841  0.49444497  1
