# generated using pymatgen
data_Zn3WN4
_symmetry_space_group_name_H-M   'P 1'
_cell_length_a   5.07208609
_cell_length_b   5.83313608
_cell_length_c   6.77302763
_cell_angle_alpha   90.00006217
_cell_angle_beta   90.00001129
_cell_angle_gamma   89.76274395
_symmetry_Int_Tables_number   1
_chemical_formula_structural   Zn3WN4
_chemical_formula_sum   'Zn6 W2 N8'
_cell_volume   200.38621794
_cell_formula_units_Z   2
loop_
 _symmetry_equiv_pos_site_id
 _symmetry_equiv_pos_as_xyz
  1  'x, y, z'
loop_
 _atom_site_type_symbol
 _atom_site_label
 _atom_site_symmetry_multiplicity
 _atom_site_fract_x
 _atom_site_fract_y
 _atom_site_fract_z
 _atom_site_occupancy
  Zn  Zn0  1  0.15684626  0.84473492  0.24152935  1
  Zn  Zn1  1  0.15684557  0.84473589  0.74736011  1
  Zn  Zn2  1  0.67468376  0.67942996  0.99444435  1
  Zn  Zn3  1  0.67454714  0.17761817  0.74192150  1
  Zn  Zn4  1  0.67454750  0.17761753  0.24696850  1
  Zn  Zn5  1  0.15331998  0.34229200  0.49444334  1
  W  W6  1  0.18318596  0.34233217  0.99444413  1
  W  W7  1  0.64168051  0.67989321  0.49444473  1
  N  N8  1  0.07903115  0.18617848  0.75978956  1
  N  N9  1  0.07903060  0.18617747  0.22909767  1
  N  N10  1  0.07968033  0.65551374  0.99444406  1
  N  N11  1  0.58406880  0.83852137  0.73416868  1
  N  N12  1  0.58406881  0.83852085  0.25472069  1
  N  N13  1  0.55297181  0.34099001  0.99444502  1
  N  N14  1  0.06422934  0.68207921  0.49444463  1
  N  N15  1  0.58187982  0.36114329  0.49444471  1
