# generated using pymatgen
data_Zn3WN4
_symmetry_space_group_name_H-M   'P 1'
_cell_length_a   5.38525583
_cell_length_b   5.70841442
_cell_length_c   6.59579006
_cell_angle_alpha   89.99999679
_cell_angle_beta   89.99999651
_cell_angle_gamma   89.99999761
_symmetry_Int_Tables_number   1
_chemical_formula_structural   Zn3WN4
_chemical_formula_sum   'Zn6 W2 N8'
_cell_volume   202.76297646
_cell_formula_units_Z   2
loop_
 _symmetry_equiv_pos_site_id
 _symmetry_equiv_pos_as_xyz
  1  'x, y, z'
loop_
 _atom_site_type_symbol
 _atom_site_label
 _atom_site_symmetry_multiplicity
 _atom_site_fract_x
 _atom_site_fract_y
 _atom_site_fract_z
 _atom_site_occupancy
  Zn  Zn0  1  0.00280002  0.84338708  0.24310618  1
  Zn  Zn1  1  0.00280002  0.84338710  0.74578269  1
  Zn  Zn2  1  0.50367616  0.67774983  0.99444443  1
  Zn  Zn3  1  0.50280003  0.17883525  0.74310622  1
  Zn  Zn4  1  0.50280003  0.17883525  0.24578267  1
  Zn  Zn5  1  0.00367619  0.34447249  0.49444442  1
  W  W6  1  0.00389125  0.34095569  0.99444443  1
  W  W7  1  0.50389121  0.68126668  0.49444443  1
  N  N8  1  0.12005133  0.18429364  0.75759048  1
  N  N9  1  0.12005131  0.18429365  0.23129839  1
  N  N10  1  0.12048385  0.65445177  0.99444444  1
  N  N11  1  0.62005133  0.83792869  0.73129841  1
  N  N12  1  0.62005133  0.83792868  0.25759046  1
  N  N13  1  0.65359740  0.33990092  0.99444443  1
  N  N14  1  0.15359745  0.68232147  0.49444444  1
  N  N15  1  0.62048386  0.36777057  0.49444445  1
