# generated using pymatgen
data_Al17BN18
_symmetry_space_group_name_H-M   'P 1'
_cell_length_a   9.31622970
_cell_length_b   9.30014822
_cell_length_c   10.13435040
_cell_angle_alpha   89.77742056
_cell_angle_beta   90.00929069
_cell_angle_gamma   60.08853407
_symmetry_Int_Tables_number   1
_chemical_formula_structural   Al17BN18
_chemical_formula_sum   'Al34 B2 N36'
_cell_volume   761.09489814
_cell_formula_units_Z   2
loop_
 _symmetry_equiv_pos_site_id
 _symmetry_equiv_pos_as_xyz
  1  'x, y, z'
loop_
 _atom_site_type_symbol
 _atom_site_label
 _atom_site_symmetry_multiplicity
 _atom_site_fract_x
 _atom_site_fract_y
 _atom_site_fract_z
 _atom_site_occupancy
  Al  Al0  1  0.10938552  0.09479913  0.30987714  1
  Al  Al1  1  0.21908676  0.20387384  0.06217812  1
  Al  Al2  1  0.78867868  0.08592792  0.81933635  1
  Al  Al3  1  0.88853802  0.19903602  0.56072052  1
  Al  Al4  1  0.44956977  0.09341684  0.38612576  1
  Al  Al5  1  0.55402554  0.19639628  0.12498027  1
  Al  Al6  1  0.11444738  0.09485237  0.80929898  1
  Al  Al7  1  0.21201764  0.21184877  0.56017354  1
  Al  Al8  1  0.78490294  0.08801740  0.30975089  1
  Al  Al9  1  0.88837383  0.20772057  0.05786624  1
  Al  Al10  1  0.45600423  0.08097787  0.87565618  1
  Al  Al11  1  0.55693605  0.19721528  0.63361903  1
  Al  Al12  1  0.11016144  0.42903950  0.30902005  1
  Al  Al13  1  0.22151267  0.54118228  0.05692850  1
  Al  Al14  1  0.77711556  0.43023009  0.80836969  1
  Al  Al15  1  0.89087972  0.54433845  0.55703450  1
  Al  Al16  1  0.43938547  0.43323144  0.30842345  1
  Al  Al17  1  0.55798620  0.54401833  0.06004411  1
  Al  Al18  1  0.11211403  0.42714853  0.81040263  1
  Al  Al19  1  0.21639133  0.54300752  0.56032286  1
  Al  Al20  1  0.77766991  0.42697347  0.31048223  1
  Al  Al21  1  0.88064782  0.54488108  0.05956957  1
  Al  Al22  1  0.44228384  0.43482209  0.81302021  1
  Al  Al23  1  0.55337668  0.53782619  0.55556444  1
  Al  Al24  1  0.10918296  0.76142795  0.30867737  1
  Al  Al25  1  0.22673086  0.87513088  0.06014009  1
  Al  Al26  1  0.78439891  0.76107608  0.80722122  1
  Al  Al27  1  0.44658996  0.76513447  0.31680473  1
  Al  Al28  1  0.10817539  0.76412905  0.81304945  1
  Al  Al29  1  0.21394990  0.87434097  0.55706800  1
  Al  Al30  1  0.77274273  0.76537396  0.31699136  1
  Al  Al31  1  0.88418867  0.87348942  0.06813580  1
  Al  Al32  1  0.44270320  0.76018284  0.80271547  1
  Al  Al33  1  0.55943016  0.87154889  0.59141720  1
  B  B34  1  0.89294130  0.86946204  0.59189368  1
  B  B35  1  0.55608004  0.87047295  0.09998228  1
  N  N36  1  0.21539656  0.20856659  0.36848251  1
  N  N37  1  0.10927065  0.09522812  0.12151430  1
  N  N38  1  0.89136632  0.20707210  0.86900697  1
  N  N39  1  0.79780190  0.06144409  0.62183571  1
  N  N40  1  0.55205152  0.20174288  0.31722631  1
  N  N41  1  0.46305505  0.05805117  0.07280933  1
  N  N42  1  0.22161043  0.20720130  0.87302439  1
  N  N43  1  0.10989568  0.09453381  0.62140747  1
  N  N44  1  0.88712350  0.20501314  0.37272608  1
  N  N45  1  0.78277874  0.09512532  0.11585980  1
  N  N46  1  0.55766387  0.20289210  0.82811088  1
  N  N47  1  0.44060263  0.10273900  0.57467512  1
  N  N48  1  0.22123313  0.53928937  0.37208722  1
  N  N49  1  0.10925032  0.43063384  0.11932269  1
  N  N50  1  0.88893679  0.54030175  0.87060031  1
  N  N51  1  0.77661147  0.42927528  0.61862107  1
  N  N52  1  0.55476971  0.53808155  0.36693609  1
  N  N53  1  0.44137868  0.43428067  0.11574086  1
  N  N54  1  0.22117650  0.54075765  0.86875632  1
  N  N55  1  0.10899748  0.42941616  0.62236385  1
  N  N56  1  0.88843172  0.53898267  0.36875398  1
  N  N57  1  0.77813222  0.42777669  0.12114037  1
  N  N58  1  0.55642567  0.54172973  0.87229663  1
  N  N59  1  0.44088630  0.43245271  0.62086004  1
  N  N60  1  0.22136660  0.87204139  0.36835724  1
  N  N61  1  0.11505993  0.76066302  0.11859487  1
  N  N62  1  0.89123018  0.86807082  0.88055147  1
  N  N63  1  0.80271872  0.77084299  0.61542960  1
  N  N64  1  0.56034431  0.86339033  0.38411702  1
  N  N65  1  0.45881373  0.77743734  0.11930082  1
  N  N66  1  0.22402268  0.87236471  0.87092622  1
  N  N67  1  0.08471825  0.77512468  0.61919010  1
  N  N68  1  0.89054185  0.86931586  0.35670025  1
  N  N69  1  0.74510031  0.77596675  0.11789985  1
  N  N70  1  0.55796006  0.87198644  0.80911066  1
  N  N71  1  0.43531739  0.75636573  0.61512632  1
