# generated using pymatgen
data_Al17BN18
_symmetry_space_group_name_H-M   'P 1'
_cell_length_a   9.35537643
_cell_length_b   9.30070477
_cell_length_c   10.24879148
_cell_angle_alpha   89.50455324
_cell_angle_beta   90.09732015
_cell_angle_gamma   59.74364581
_symmetry_Int_Tables_number   1
_chemical_formula_structural   Al17BN18
_chemical_formula_sum   'Al34 B2 N36'
_cell_volume   770.23957880
_cell_formula_units_Z   2
loop_
 _symmetry_equiv_pos_site_id
 _symmetry_equiv_pos_as_xyz
  1  'x, y, z'
loop_
 _atom_site_type_symbol
 _atom_site_label
 _atom_site_symmetry_multiplicity
 _atom_site_fract_x
 _atom_site_fract_y
 _atom_site_fract_z
 _atom_site_occupancy
  Al  Al0  1  0.11049321  0.09747277  0.39025813  1
  Al  Al1  1  0.23003557  0.19493926  0.13754452  1
  Al  Al2  1  0.77604097  0.09863175  0.89723180  1
  Al  Al3  1  0.89343652  0.19386300  0.63911017  1
  Al  Al4  1  0.44138890  0.10108661  0.39665947  1
  Al  Al5  1  0.56183054  0.19256916  0.14293505  1
  Al  Al6  1  0.11153125  0.09181660  0.89269269  1
  Al  Al7  1  0.22350501  0.20191364  0.64456598  1
  Al  Al8  1  0.78187886  0.08410894  0.38819234  1
  Al  Al9  1  0.89227057  0.19987814  0.14425017  1
  Al  Al10  1  0.45032716  0.08296014  0.88774441  1
  Al  Al11  1  0.56241250  0.19241557  0.64457026  1
  Al  Al12  1  0.10715895  0.43533756  0.31710628  1
  Al  Al13  1  0.22477536  0.53947012  0.06634893  1
  Al  Al14  1  0.77673552  0.43193469  0.81889714  1
  Al  Al15  1  0.89208769  0.54420594  0.56626557  1
  Al  Al16  1  0.44137666  0.43368780  0.31875817  1
  Al  Al17  1  0.55725939  0.54545198  0.06835675  1
  Al  Al18  1  0.10750214  0.43275771  0.82295320  1
  Al  Al19  1  0.21556703  0.54236299  0.56981530  1
  Al  Al20  1  0.77359203  0.43495753  0.32061774  1
  Al  Al21  1  0.88012816  0.54458544  0.06772022  1
  Al  Al22  1  0.44189056  0.43103973  0.82134906  1
  Al  Al23  1  0.55902373  0.52731043  0.57047440  1
  Al  Al24  1  0.10950678  0.75835356  0.31312325  1
  Al  Al25  1  0.23675345  0.87485828  0.14059406  1
  Al  Al26  1  0.78342202  0.76424349  0.81845845  1
  Al  Al27  1  0.44155910  0.76596820  0.39012486  1
  Al  Al28  1  0.10043182  0.76286110  0.82902970  1
  Al  Al29  1  0.20868635  0.88023530  0.63555641  1
  Al  Al30  1  0.76609555  0.76645675  0.31745516  1
  Al  Al31  1  0.88555289  0.87157259  0.09617836  1
  Al  Al32  1  0.44838792  0.75764652  0.81933708  1
  Al  Al33  1  0.56174065  0.87657554  0.60228023  1
  B  B34  1  0.89140987  0.86879588  0.60592449  1
  B  B35  1  0.55491241  0.86723519  0.10258711  1
  N  N36  1  0.22656427  0.19993138  0.32563160  1
  N  N37  1  0.11018102  0.09580100  0.07811811  1
  N  N38  1  0.89250130  0.19662244  0.82681664  1
  N  N39  1  0.79301658  0.06281095  0.58295854  1
  N  N40  1  0.55877241  0.19897107  0.33088441  1
  N  N41  1  0.46133104  0.06360553  0.08041808  1
  N  N42  1  0.22578353  0.19823275  0.83407811  1
  N  N43  1  0.10961082  0.09934781  0.57590270  1
  N  N44  1  0.89023849  0.19984627  0.33368587  1
  N  N45  1  0.77372191  0.10596256  0.08072281  1
  N  N46  1  0.55992994  0.19654490  0.83201412  1
  N  N47  1  0.43515304  0.10981267  0.58079483  1
  N  N48  1  0.22213144  0.53909858  0.38364778  1
  N  N49  1  0.10625908  0.43672575  0.12730525  1
  N  N50  1  0.88664577  0.54019080  0.88120424  1
  N  N51  1  0.77700143  0.43459317  0.62977011  1
  N  N52  1  0.55732242  0.53304257  0.38474166  1
  N  N53  1  0.44357935  0.43330900  0.12949198  1
  N  N54  1  0.22312892  0.53734648  0.88041662  1
  N  N55  1  0.10629473  0.43497547  0.63389303  1
  N  N56  1  0.88835837  0.54046036  0.38025496  1
  N  N57  1  0.77523034  0.43390596  0.13228856  1
  N  N58  1  0.55710851  0.53631291  0.87977640  1
  N  N59  1  0.43985169  0.43168563  0.63282245  1
  N  N60  1  0.22470754  0.87515062  0.33302409  1
  N  N61  1  0.12101039  0.75768988  0.12389428  1
  N  N62  1  0.88942556  0.86499413  0.89509261  1
  N  N63  1  0.80151210  0.77423865  0.62526747  1
  N  N64  1  0.56300868  0.86880998  0.39779680  1
  N  N65  1  0.46236135  0.77829409  0.10264876  1
  N  N66  1  0.21928800  0.87446886  0.82493530  1
  N  N67  1  0.07737554  0.77609900  0.62779052  1
  N  N68  1  0.88567071  0.87236394  0.32453534  1
  N  N69  1  0.74236490  0.77490220  0.12439850  1
  N  N70  1  0.55618749  0.87419469  0.81084238  1
  N  N71  1  0.43779514  0.75783693  0.60363130  1
