# generated using pymatgen
data_Al17BN18
_symmetry_space_group_name_H-M   'P 1'
_cell_length_a   9.32626514
_cell_length_b   9.29795914
_cell_length_c   10.28339095
_cell_angle_alpha   89.74424546
_cell_angle_beta   90.10921205
_cell_angle_gamma   59.85121976
_symmetry_Int_Tables_number   1
_chemical_formula_structural   Al17BN18
_chemical_formula_sum   'Al34 B2 N36'
_cell_volume   771.08098624
_cell_formula_units_Z   2
loop_
 _symmetry_equiv_pos_site_id
 _symmetry_equiv_pos_as_xyz
  1  'x, y, z'
loop_
 _atom_site_type_symbol
 _atom_site_label
 _atom_site_symmetry_multiplicity
 _atom_site_fract_x
 _atom_site_fract_y
 _atom_site_fract_z
 _atom_site_occupancy
  Al  Al0  1  0.11323130  0.09324155  0.39207097  1
  Al  Al1  1  0.22990883  0.19387176  0.13901588  1
  Al  Al2  1  0.77459139  0.10083532  0.89673479  1
  Al  Al3  1  0.89361280  0.19267019  0.63734420  1
  Al  Al4  1  0.44294408  0.09747423  0.39722383  1
  Al  Al5  1  0.56233513  0.19082915  0.14466109  1
  Al  Al6  1  0.10851233  0.09759372  0.89073763  1
  Al  Al7  1  0.22223392  0.20195636  0.64289954  1
  Al  Al8  1  0.78305456  0.08266052  0.38629854  1
  Al  Al9  1  0.89366444  0.20009505  0.14540289  1
  Al  Al10  1  0.44947373  0.08706452  0.88360785  1
  Al  Al11  1  0.56251105  0.19256400  0.64168859  1
  Al  Al12  1  0.10687328  0.43339847  0.31815164  1
  Al  Al13  1  0.23045324  0.52691064  0.07078757  1
  Al  Al14  1  0.77467501  0.43444028  0.81592501  1
  Al  Al15  1  0.89018304  0.54716855  0.56611659  1
  Al  Al16  1  0.44446584  0.43069016  0.32097625  1
  Al  Al17  1  0.56312282  0.53261829  0.06906174  1
  Al  Al18  1  0.10695089  0.43645341  0.81970843  1
  Al  Al19  1  0.21327612  0.54618219  0.56743445  1
  Al  Al20  1  0.77478011  0.43404475  0.32283466  1
  Al  Al21  1  0.88023823  0.54388243  0.06543344  1
  Al  Al22  1  0.44033596  0.43371597  0.81790712  1
  Al  Al23  1  0.55662075  0.53083434  0.57078417  1
  Al  Al24  1  0.11077032  0.75979220  0.32521114  1
  Al  Al25  1  0.23730595  0.87560795  0.13711804  1
  Al  Al26  1  0.78527177  0.76593727  0.81603689  1
  Al  Al27  1  0.43945679  0.76678863  0.39872206  1
  Al  Al28  1  0.11027780  0.76653707  0.89706204  1
  Al  Al29  1  0.21092954  0.87158538  0.64419586  1
  Al  Al30  1  0.76479214  0.76532154  0.31366195  1
  Al  Al31  1  0.87952191  0.87675676  0.10328376  1
  Al  Al32  1  0.44667157  0.76783775  0.87833156  1
  Al  Al33  1  0.55565460  0.87466606  0.61189912  1
  B  B34  1  0.89478842  0.86810498  0.60091346  1
  B  B35  1  0.55599248  0.86933403  0.09555160  1
  N  N36  1  0.22676847  0.19862365  0.32640708  1
  N  N37  1  0.11016094  0.09662289  0.07640420  1
  N  N38  1  0.89088013  0.19866416  0.82501283  1
  N  N39  1  0.79143229  0.06400614  0.57858274  1
  N  N40  1  0.55966926  0.19650171  0.33114594  1
  N  N41  1  0.46135049  0.06349712  0.07809228  1
  N  N42  1  0.22456067  0.20121711  0.83207185  1
  N  N43  1  0.11199409  0.09385462  0.57789398  1
  N  N44  1  0.89285044  0.19799419  0.33363018  1
  N  N45  1  0.77215581  0.10995923  0.08028873  1
  N  N46  1  0.55981320  0.19837588  0.82889453  1
  N  N47  1  0.43588147  0.10661208  0.58089451  1
  N  N48  1  0.22346533  0.53693421  0.37937417  1
  N  N49  1  0.10484384  0.43484652  0.12953615  1
  N  N50  1  0.88619836  0.54158347  0.87999112  1
  N  N51  1  0.77629511  0.43521680  0.62847282  1
  N  N52  1  0.55839567  0.53197835  0.38368602  1
  N  N53  1  0.44561466  0.42970600  0.13321864  1
  N  N54  1  0.22585998  0.53315911  0.88535330  1
  N  N55  1  0.10616342  0.43582085  0.63181361  1
  N  N56  1  0.88819341  0.54238124  0.38024008  1
  N  N57  1  0.77700744  0.43380167  0.13475516  1
  N  N58  1  0.55823884  0.53271466  0.88268091  1
  N  N59  1  0.43825981  0.43254131  0.63084140  1
  N  N60  1  0.22848401  0.87309750  0.32263974  1
  N  N61  1  0.12378564  0.75881799  0.09940075  1
  N  N62  1  0.88456934  0.86907941  0.89722547  1
  N  N63  1  0.79945222  0.77619767  0.62515178  1
  N  N64  1  0.56113926  0.86941914  0.38682738  1
  N  N65  1  0.45991811  0.77926059  0.07446275  1
  N  N66  1  0.22045637  0.87245456  0.83256036  1
  N  N67  1  0.07684854  0.78029362  0.59686704  1
  N  N68  1  0.88641993  0.87365602  0.30726091  1
  N  N69  1  0.73948127  0.77419066  0.12101269  1
  N  N70  1  0.55398330  0.87266564  0.81233297  1
  N  N71  1  0.43105762  0.76252762  0.58674469  1
