# generated using pymatgen
data_Al17BN18
_symmetry_space_group_name_H-M   'P 1'
_cell_length_a   9.32172837
_cell_length_b   9.31289439
_cell_length_c   10.06005725
_cell_angle_alpha   89.75310418
_cell_angle_beta   89.93546827
_cell_angle_gamma   60.09375823
_symmetry_Int_Tables_number   1
_chemical_formula_structural   Al17BN18
_chemical_formula_sum   'Al34 B2 N36'
_cell_volume   757.03752077
_cell_formula_units_Z   2
loop_
 _symmetry_equiv_pos_site_id
 _symmetry_equiv_pos_as_xyz
  1  'x, y, z'
loop_
 _atom_site_type_symbol
 _atom_site_label
 _atom_site_symmetry_multiplicity
 _atom_site_fract_x
 _atom_site_fract_y
 _atom_site_fract_z
 _atom_site_occupancy
  Al  Al0  1  0.10996302  0.09556195  0.30941963  1
  Al  Al1  1  0.22105591  0.20231680  0.06194928  1
  Al  Al2  1  0.78980623  0.08460856  0.80854882  1
  Al  Al3  1  0.88838429  0.20128295  0.56102102  1
  Al  Al4  1  0.44728644  0.09438587  0.38709686  1
  Al  Al5  1  0.55646995  0.19464473  0.12868635  1
  Al  Al6  1  0.11428883  0.09360990  0.81086966  1
  Al  Al7  1  0.21139990  0.21183601  0.56234219  1
  Al  Al8  1  0.78436620  0.08923046  0.32035658  1
  Al  Al9  1  0.88805697  0.20479184  0.05946939  1
  Al  Al10  1  0.45749984  0.08108664  0.87237402  1
  Al  Al11  1  0.55640040  0.19956073  0.62804091  1
  Al  Al12  1  0.11067524  0.42811688  0.30866832  1
  Al  Al13  1  0.22060024  0.54167293  0.05841667  1
  Al  Al14  1  0.77736178  0.42963037  0.80991271  1
  Al  Al15  1  0.89038210  0.54338773  0.55770380  1
  Al  Al16  1  0.43923401  0.43427587  0.31033401  1
  Al  Al17  1  0.55838312  0.54329627  0.06027672  1
  Al  Al18  1  0.11211720  0.42714778  0.81155507  1
  Al  Al19  1  0.21611502  0.54320917  0.56044953  1
  Al  Al20  1  0.77793410  0.42773216  0.30994977  1
  Al  Al21  1  0.88115093  0.54519195  0.06059351  1
  Al  Al22  1  0.44229032  0.43403712  0.81250256  1
  Al  Al23  1  0.55338291  0.53876849  0.55643206  1
  Al  Al24  1  0.10799651  0.76243431  0.31520205  1
  Al  Al25  1  0.22526606  0.87393657  0.06151171  1
  Al  Al26  1  0.78602632  0.76092296  0.80078600  1
  Al  Al27  1  0.44674108  0.76552428  0.31626106  1
  Al  Al28  1  0.10700640  0.76400851  0.80621115  1
  Al  Al29  1  0.21472345  0.87403258  0.55734256  1
  Al  Al30  1  0.77299569  0.76594010  0.32355283  1
  Al  Al31  1  0.88276100  0.87406967  0.06201518  1
  Al  Al32  1  0.44292175  0.75988392  0.80398693  1
  Al  Al33  1  0.55921289  0.87100005  0.59158366  1
  B  B34  1  0.89181581  0.86842337  0.55711664  1
  B  B35  1  0.55706322  0.87158718  0.10224394  1
  N  N36  1  0.21506536  0.20902482  0.36870510  1
  N  N37  1  0.11004769  0.09444038  0.12050953  1
  N  N38  1  0.89018401  0.20517038  0.86912739  1
  N  N39  1  0.79441460  0.06647577  0.61277711  1
  N  N40  1  0.55215018  0.20296414  0.32283337  1
  N  N41  1  0.46487076  0.05809651  0.07470970  1
  N  N42  1  0.22284416  0.20596435  0.87218670  1
  N  N43  1  0.10955198  0.09416830  0.62199640  1
  N  N44  1  0.88883622  0.20683545  0.37234453  1
  N  N45  1  0.78697005  0.08880337  0.12552345  1
  N  N46  1  0.55914460  0.20256759  0.82563747  1
  N  N47  1  0.43925337  0.10239018  0.57672077  1
  N  N48  1  0.22020348  0.53927436  0.37123110  1
  N  N49  1  0.11011599  0.42892184  0.11860136  1
  N  N50  1  0.88844307  0.54151053  0.87054511  1
  N  N51  1  0.77638974  0.42965124  0.61910513  1
  N  N52  1  0.55514151  0.53914772  0.36660546  1
  N  N53  1  0.44186001  0.43322870  0.11676072  1
  N  N54  1  0.22051681  0.54204849  0.86874306  1
  N  N55  1  0.10865191  0.42952647  0.62257672  1
  N  N56  1  0.88923709  0.53906869  0.36788675  1
  N  N57  1  0.77867808  0.42664360  0.12009443  1
  N  N58  1  0.55608673  0.54107528  0.87207544  1
  N  N59  1  0.43978118  0.43384609  0.61908415  1
  N  N60  1  0.22141824  0.87313257  0.36720148  1
  N  N61  1  0.10871661  0.76205210  0.12376117  1
  N  N62  1  0.89067171  0.86937115  0.87556988  1
  N  N63  1  0.80072571  0.76942775  0.60963144  1
  N  N64  1  0.55837999  0.86566977  0.38305240  1
  N  N65  1  0.46012883  0.77720797  0.11866100  1
  N  N66  1  0.22311166  0.87038801  0.87119051  1
  N  N67  1  0.08646378  0.77388254  0.61268542  1
  N  N68  1  0.89036577  0.87125941  0.39065368  1
  N  N69  1  0.74815251  0.77724281  0.12343117  1
  N  N70  1  0.55955659  0.87019966  0.81020459  1
  N  N71  1  0.43538080  0.75688382  0.61511723  1
