# generated using pymatgen
data_Al17BN18
_symmetry_space_group_name_H-M   'P 1'
_cell_length_a   9.31384293
_cell_length_b   9.30005075
_cell_length_c   10.12082364
_cell_angle_alpha   89.77311335
_cell_angle_beta   90.00099758
_cell_angle_gamma   60.09514494
_symmetry_Int_Tables_number   1
_chemical_formula_structural   Al17BN18
_chemical_formula_sum   'Al34 B2 N36'
_cell_volume   759.92677085
_cell_formula_units_Z   2
loop_
 _symmetry_equiv_pos_site_id
 _symmetry_equiv_pos_as_xyz
  1  'x, y, z'
loop_
 _atom_site_type_symbol
 _atom_site_label
 _atom_site_symmetry_multiplicity
 _atom_site_fract_x
 _atom_site_fract_y
 _atom_site_fract_z
 _atom_site_occupancy
  Al  Al0  1  0.10944743  0.09496100  0.30978557  1
  Al  Al1  1  0.21933370  0.20368865  0.06213925  1
  Al  Al2  1  0.78923310  0.08543960  0.81609859  1
  Al  Al3  1  0.88834113  0.19941653  0.56072258  1
  Al  Al4  1  0.44907099  0.09361576  0.38621814  1
  Al  Al5  1  0.55461137  0.19607517  0.12559663  1
  Al  Al6  1  0.11450184  0.09460805  0.80955036  1
  Al  Al7  1  0.21191899  0.21180564  0.56050451  1
  Al  Al8  1  0.78483348  0.08794321  0.31243455  1
  Al  Al9  1  0.88831797  0.20702002  0.05817934  1
  Al  Al10  1  0.45643131  0.08093781  0.87535099  1
  Al  Al11  1  0.55686040  0.19759361  0.63265522  1
  Al  Al12  1  0.11028878  0.42873989  0.30896467  1
  Al  Al13  1  0.22104705  0.54150715  0.05728809  1
  Al  Al14  1  0.77721775  0.43012047  0.80860919  1
  Al  Al15  1  0.89067565  0.54413506  0.55717704  1
  Al  Al16  1  0.43930634  0.43343362  0.30864399  1
  Al  Al17  1  0.55811813  0.54397717  0.05993158  1
  Al  Al18  1  0.11212810  0.42719777  0.81057416  1
  Al  Al19  1  0.21640754  0.54307721  0.56034346  1
  Al  Al20  1  0.77768924  0.42710646  0.31035696  1
  Al  Al21  1  0.88082486  0.54496995  0.05980747  1
  Al  Al22  1  0.44228434  0.43469087  0.81300687  1
  Al  Al23  1  0.55337930  0.53789188  0.55578168  1
  Al  Al24  1  0.10840743  0.76191610  0.31083489  1
  Al  Al25  1  0.22624530  0.87497456  0.06049510  1
  Al  Al26  1  0.78484340  0.76106872  0.80512516  1
  Al  Al27  1  0.44667009  0.76509207  0.31668618  1
  Al  Al28  1  0.10782943  0.76415532  0.81082342  1
  Al  Al29  1  0.21417747  0.87413315  0.55706490  1
  Al  Al30  1  0.77309354  0.76568873  0.31907928  1
  Al  Al31  1  0.88376393  0.87369170  0.06515562  1
  Al  Al32  1  0.44276075  0.76019897  0.80289515  1
  Al  Al33  1  0.55955276  0.87129626  0.59124256  1
  B  B34  1  0.89259965  0.86924838  0.57971416  1
  B  B35  1  0.55632568  0.87087672  0.10067677  1
  N  N36  1  0.21530390  0.20861701  0.36846074  1
  N  N37  1  0.10940548  0.09508333  0.12137754  1
  N  N38  1  0.89111937  0.20662747  0.86910693  1
  N  N39  1  0.79697604  0.06259826  0.61969737  1
  N  N40  1  0.55201921  0.20188803  0.31792634  1
  N  N41  1  0.46348676  0.05805096  0.07320010  1
  N  N42  1  0.22187304  0.20702107  0.87299720  1
  N  N43  1  0.10986242  0.09441285  0.62150109  1
  N  N44  1  0.88742861  0.20538289  0.37258231  1
  N  N45  1  0.78420876  0.09296559  0.11853118  1
  N  N46  1  0.55810927  0.20278397  0.82786604  1
  N  N47  1  0.44041594  0.10261501  0.57482429  1
  N  N48  1  0.22100461  0.53924147  0.37185207  1
  N  N49  1  0.10941976  0.43030142  0.11927757  1
  N  N50  1  0.88880925  0.54067335  0.87068325  1
  N  N51  1  0.77660963  0.42922669  0.61870576  1
  N  N52  1  0.55481459  0.53819328  0.36690768  1
  N  N53  1  0.44139051  0.43429614  0.11582033  1
  N  N54  1  0.22094516  0.54123321  0.86889451  1
  N  N55  1  0.10898386  0.42935405  0.62239621  1
  N  N56  1  0.88863101  0.53899847  0.36852261  1
  N  N57  1  0.77822486  0.42753462  0.12093435  1
  N  N58  1  0.55640983  0.54166794  0.87223613  1
  N  N59  1  0.44063389  0.43267777  0.62068315  1
  N  N60  1  0.22141267  0.87225613  0.36803446  1
  N  N61  1  0.11261289  0.76142671  0.12038599  1
  N  N62  1  0.89115682  0.86836172  0.87897479  1
  N  N63  1  0.80214868  0.77022283  0.61405195  1
  N  N64  1  0.55990028  0.86387017  0.38369530  1
  N  N65  1  0.45923136  0.77739010  0.11916861  1
  N  N66  1  0.22378161  0.87188911  0.87110371  1
  N  N67  1  0.08531236  0.77468082  0.61738248  1
  N  N68  1  0.89048275  0.87017406  0.37070088  1
  N  N69  1  0.74628967  0.77654552  0.11974809  1
  N  N70  1  0.55826396  0.87172165  0.80949387  1
  N  N71  1  0.43542894  0.75643156  0.61508571  1
