# generated using pymatgen
data_Al17BN18
_symmetry_space_group_name_H-M   'P 1'
_cell_length_a   9.32262557
_cell_length_b   9.32198429
_cell_length_c   9.98477706
_cell_angle_alpha   89.95699700
_cell_angle_beta   89.96329705
_cell_angle_gamma   60.01815131
_symmetry_Int_Tables_number   1
_chemical_formula_structural   Al17BN18
_chemical_formula_sum   'Al34 B2 N36'
_cell_volume   751.61402440
_cell_formula_units_Z   2
loop_
 _symmetry_equiv_pos_site_id
 _symmetry_equiv_pos_as_xyz
  1  'x, y, z'
loop_
 _atom_site_type_symbol
 _atom_site_label
 _atom_site_symmetry_multiplicity
 _atom_site_fract_x
 _atom_site_fract_y
 _atom_site_fract_z
 _atom_site_occupancy
  Al  Al0  1  0.10987228  0.09512826  0.30949377  1
  Al  Al1  1  0.22796883  0.19784082  0.06116285  1
  Al  Al2  1  0.78233674  0.08750820  0.80777342  1
  Al  Al3  1  0.89082153  0.20138684  0.56208854  1
  Al  Al4  1  0.44477879  0.08841510  0.32700568  1
  Al  Al5  1  0.55860824  0.19767752  0.09519751  1
  Al  Al6  1  0.11300350  0.09325739  0.81185674  1
  Al  Al7  1  0.21809665  0.20810759  0.56021003  1
  Al  Al8  1  0.78283547  0.09055737  0.32222271  1
  Al  Al9  1  0.88871896  0.20439200  0.05975181  1
  Al  Al10  1  0.44582619  0.09200285  0.80773487  1
  Al  Al11  1  0.55941413  0.20216697  0.57855354  1
  Al  Al12  1  0.11086242  0.42831452  0.30912655  1
  Al  Al13  1  0.22095766  0.54059412  0.05903710  1
  Al  Al14  1  0.77692223  0.42927364  0.81129040  1
  Al  Al15  1  0.89102537  0.54288110  0.56020117  1
  Al  Al16  1  0.44139460  0.43186645  0.31382340  1
  Al  Al17  1  0.55831670  0.54323245  0.06097421  1
  Al  Al18  1  0.11159891  0.42719793  0.81259428  1
  Al  Al19  1  0.21519671  0.54376951  0.56120217  1
  Al  Al20  1  0.77852258  0.42739757  0.31072438  1
  Al  Al21  1  0.88175453  0.54448867  0.06107149  1
  Al  Al22  1  0.44468498  0.42918221  0.81118930  1
  Al  Al23  1  0.55447185  0.54002378  0.55866943  1
  Al  Al24  1  0.10835956  0.76221106  0.31565554  1
  Al  Al25  1  0.22526629  0.87341034  0.06154219  1
  Al  Al26  1  0.78070980  0.76385109  0.80553183  1
  Al  Al27  1  0.44631658  0.76370387  0.31677805  1
  Al  Al28  1  0.10607309  0.76406238  0.80774833  1
  Al  Al29  1  0.21550441  0.87400390  0.55943001  1
  Al  Al30  1  0.77487930  0.76476033  0.32375337  1
  Al  Al31  1  0.88194557  0.87396866  0.06261291  1
  Al  Al32  1  0.44489735  0.76114299  0.80852674  1
  Al  Al33  1  0.55944633  0.87137265  0.57674482  1
  B  B34  1  0.89172427  0.86894087  0.55753607  1
  B  B35  1  0.55586076  0.87175997  0.10439546  1
  N  N36  1  0.21889874  0.20711176  0.36911743  1
  N  N37  1  0.11062667  0.09440966  0.11959241  1
  N  N38  1  0.88890027  0.20455281  0.86856343  1
  N  N39  1  0.79374793  0.06767237  0.61182683  1
  N  N40  1  0.55491045  0.20603735  0.35877509  1
  N  N41  1  0.45816496  0.06234567  0.12469732  1
  N  N42  1  0.22461304  0.20418204  0.87182115  1
  N  N43  1  0.11120408  0.09444711  0.62141092  1
  N  N44  1  0.89008566  0.20683224  0.37233298  1
  N  N45  1  0.78450439  0.09014889  0.12871581  1
  N  N46  1  0.55821123  0.20440234  0.85190550  1
  N  N47  1  0.43823750  0.09903525  0.61371484  1
  N  N48  1  0.22002755  0.53967523  0.37116921  1
  N  N49  1  0.11133481  0.42700368  0.11826667  1
  N  N50  1  0.88824060  0.54137771  0.87041839  1
  N  N51  1  0.77717224  0.42926010  0.61958010  1
  N  N52  1  0.55593244  0.53981397  0.36793585  1
  N  N53  1  0.44293105  0.43121737  0.12106425  1
  N  N54  1  0.22119929  0.54148727  0.86828385  1
  N  N55  1  0.11027881  0.42780656  0.62179077  1
  N  N56  1  0.88946350  0.53888260  0.36891587  1
  N  N57  1  0.77880157  0.42638484  0.12023071  1
  N  N58  1  0.55504227  0.54030319  0.87195813  1
  N  N59  1  0.44140057  0.43226126  0.61780304  1
  N  N60  1  0.22167579  0.87303316  0.36810611  1
  N  N61  1  0.10846597  0.76194826  0.12365797  1
  N  N62  1  0.88974300  0.87080589  0.87550283  1
  N  N63  1  0.79694640  0.77130586  0.61131699  1
  N  N64  1  0.55647618  0.86916526  0.38370721  1
  N  N65  1  0.45956388  0.77569741  0.12037875  1
  N  N66  1  0.22239621  0.87002688  0.87078186  1
  N  N67  1  0.08607592  0.77417140  0.61317660  1
  N  N68  1  0.89062366  0.87081991  0.39094122  1
  N  N69  1  0.74839771  0.77672052  0.12507701  1
  N  N70  1  0.55894933  0.86935274  0.83947690  1
  N  N71  1  0.43842908  0.75915896  0.61709981  1
