# generated using pymatgen
data_Al17BN18
_symmetry_space_group_name_H-M   'P 1'
_cell_length_a   9.34089280
_cell_length_b   9.31976167
_cell_length_c   10.14068794
_cell_angle_alpha   89.46194903
_cell_angle_beta   89.92437894
_cell_angle_gamma   59.88876702
_symmetry_Int_Tables_number   1
_chemical_formula_structural   Al17BN18
_chemical_formula_sum   'Al34 B2 N36'
_cell_volume   763.62631025
_cell_formula_units_Z   2
loop_
 _symmetry_equiv_pos_site_id
 _symmetry_equiv_pos_as_xyz
  1  'x, y, z'
loop_
 _atom_site_type_symbol
 _atom_site_label
 _atom_site_symmetry_multiplicity
 _atom_site_fract_x
 _atom_site_fract_y
 _atom_site_fract_z
 _atom_site_occupancy
  Al  Al0  1  0.10793755  0.09378495  0.31964933  1
  Al  Al1  1  0.22378760  0.20265520  0.09663062  1
  Al  Al2  1  0.77402128  0.09319991  0.89869561  1
  Al  Al3  1  0.89308789  0.20428238  0.57426597  1
  Al  Al4  1  0.44299137  0.09602795  0.39680696  1
  Al  Al5  1  0.56117228  0.19173899  0.14659707  1
  Al  Al6  1  0.11054715  0.09429861  0.82689613  1
  Al  Al7  1  0.22044296  0.20880821  0.60795267  1
  Al  Al8  1  0.78105434  0.08017538  0.38736877  1
  Al  Al9  1  0.88934261  0.21327456  0.07177316  1
  Al  Al10  1  0.45324257  0.08159664  0.88978230  1
  Al  Al11  1  0.56609296  0.19138731  0.64496716  1
  Al  Al12  1  0.10938633  0.43170166  0.31862272  1
  Al  Al13  1  0.22491200  0.53984002  0.06710563  1
  Al  Al14  1  0.77589435  0.43099089  0.82016943  1
  Al  Al15  1  0.89175453  0.54508416  0.56901356  1
  Al  Al16  1  0.44102040  0.43202677  0.32279900  1
  Al  Al17  1  0.55662414  0.54263802  0.07316596  1
  Al  Al18  1  0.10954609  0.43087905  0.82796568  1
  Al  Al19  1  0.21775818  0.54249999  0.57287071  1
  Al  Al20  1  0.77807710  0.42690424  0.32253696  1
  Al  Al21  1  0.87796451  0.54756828  0.06867572  1
  Al  Al22  1  0.44370892  0.43226830  0.82205538  1
  Al  Al23  1  0.55359931  0.53843064  0.56705926  1
  Al  Al24  1  0.11538043  0.75885886  0.31521970  1
  Al  Al25  1  0.22830716  0.87416453  0.06931229  1
  Al  Al26  1  0.78289954  0.76467368  0.82153517  1
  Al  Al27  1  0.44555832  0.76656259  0.32872039  1
  Al  Al28  1  0.10483174  0.76613896  0.82784215  1
  Al  Al29  1  0.21370879  0.87463865  0.56989975  1
  Al  Al30  1  0.76894734  0.76317674  0.32281602  1
  Al  Al31  1  0.88664241  0.87219072  0.10623442  1
  Al  Al32  1  0.44249258  0.75974928  0.81466021  1
  Al  Al33  1  0.55926097  0.87110627  0.60270260  1
  B  B34  1  0.89284682  0.86924118  0.61046379  1
  B  B35  1  0.55502137  0.86946457  0.11109640  1
  N  N36  1  0.22252430  0.20511653  0.34992427  1
  N  N37  1  0.10736498  0.09249143  0.13094415  1
  N  N38  1  0.88957902  0.21033268  0.88015552  1
  N  N39  1  0.79550673  0.05837985  0.58643076  1
  N  N40  1  0.55875528  0.19806395  0.33508957  1
  N  N41  1  0.46403798  0.05874722  0.08666781  1
  N  N42  1  0.22189882  0.20653233  0.87815397  1
  N  N43  1  0.11082341  0.09306215  0.63675318  1
  N  N44  1  0.88920399  0.20630378  0.38552607  1
  N  N45  1  0.77187224  0.10289346  0.08666011  1
  N  N46  1  0.55961911  0.19806196  0.83339025  1
  N  N47  1  0.44176684  0.10342178  0.58496474  1
  N  N48  1  0.22107682  0.53958487  0.38507944  1
  N  N49  1  0.10476553  0.43798321  0.12783559  1
  N  N50  1  0.88549757  0.54215084  0.88100707  1
  N  N51  1  0.77665205  0.43177357  0.63050753  1
  N  N52  1  0.55494292  0.53879749  0.37894069  1
  N  N53  1  0.44293850  0.43015277  0.13133533  1
  N  N54  1  0.22377937  0.53988643  0.87936534  1
  N  N55  1  0.10816903  0.43297822  0.63712429  1
  N  N56  1  0.88879534  0.53942837  0.38132371  1
  N  N57  1  0.77728468  0.43031834  0.13423558  1
  N  N58  1  0.55532633  0.54020553  0.88461736  1
  N  N59  1  0.44384097  0.42986041  0.63058778  1
  N  N60  1  0.22004467  0.87220275  0.38193048  1
  N  N61  1  0.12577384  0.75646216  0.12779477  1
  N  N62  1  0.89267749  0.86330812  0.89567009  1
  N  N63  1  0.80265315  0.77308235  0.62595516  1
  N  N64  1  0.56025063  0.86400654  0.39701521  1
  N  N65  1  0.45704287  0.77800326  0.13119967  1
  N  N66  1  0.22432679  0.87093993  0.88153955  1
  N  N67  1  0.08233108  0.77716991  0.63070976  1
  N  N68  1  0.88822982  0.87090205  0.32020028  1
  N  N69  1  0.74060552  0.77376476  0.12724895  1
  N  N70  1  0.55610769  0.87306763  0.81978814  1
  N  N71  1  0.43520164  0.75627411  0.62696229  1
