# generated using pymatgen
data_Al17BN18
_symmetry_space_group_name_H-M   'P 1'
_cell_length_a   9.33970584
_cell_length_b   9.32683098
_cell_length_c   10.24189727
_cell_angle_alpha   89.75852256
_cell_angle_beta   90.00001671
_cell_angle_gamma   59.95428087
_symmetry_Int_Tables_number   1
_chemical_formula_structural   Al17BN18
_chemical_formula_sum   'Al34 B2 N36'
_cell_volume   772.27671678
_cell_formula_units_Z   2
loop_
 _symmetry_equiv_pos_site_id
 _symmetry_equiv_pos_as_xyz
  1  'x, y, z'
loop_
 _atom_site_type_symbol
 _atom_site_label
 _atom_site_symmetry_multiplicity
 _atom_site_fract_x
 _atom_site_fract_y
 _atom_site_fract_z
 _atom_site_occupancy
  Al  Al0  1  0.11210014  0.09605321  0.39095575  1
  Al  Al1  1  0.23052040  0.19282372  0.13713511  1
  Al  Al2  1  0.77732828  0.09740250  0.89610396  1
  Al  Al3  1  0.89332274  0.19282386  0.63713517  1
  Al  Al4  1  0.44193633  0.09740229  0.39610377  1
  Al  Al5  1  0.56004950  0.19678043  0.14213017  1
  Al  Al6  1  0.10851339  0.09605324  0.89095586  1
  Al  Al7  1  0.22293476  0.19995566  0.64366278  1
  Al  Al8  1  0.78131327  0.08512806  0.38369855  1
  Al  Al9  1  0.89377675  0.19995566  0.14366293  1
  Al  Al10  1  0.45022614  0.08512791  0.88369848  1
  Al  Al11  1  0.55983701  0.19677992  0.64213055  1
  Al  Al12  1  0.10651209  0.43470402  0.31543621  1
  Al  Al13  1  0.22271592  0.53359672  0.07202678  1
  Al  Al14  1  0.77544940  0.43470430  0.81543605  1
  Al  Al15  1  0.89141702  0.54543943  0.56428147  1
  Al  Al16  1  0.44810967  0.42033958  0.37947988  1
  Al  Al17  1  0.56394690  0.53774388  0.07079488  1
  Al  Al18  1  0.10653329  0.43511036  0.82009793  1
  Al  Al19  1  0.21497603  0.53774335  0.57079500  1
  Al  Al20  1  0.77502192  0.43511085  0.32009804  1
  Al  Al21  1  0.87980885  0.54543993  0.06428166  1
  Al  Al22  1  0.44821753  0.42034001  0.87948037  1
  Al  Al23  1  0.56035216  0.53359686  0.57202733  1
  Al  Al24  1  0.10238332  0.76959896  0.37612739  1
  Al  Al25  1  0.23230347  0.87245879  0.14158178  1
  Al  Al26  1  0.78533900  0.76561844  0.81417775  1
  Al  Al27  1  0.43931803  0.76811031  0.39624874  1
  Al  Al28  1  0.10923835  0.76811030  0.89624826  1
  Al  Al29  1  0.21190417  0.87245954  0.64158150  1
  Al  Al30  1  0.76570955  0.76561953  0.31417765  1
  Al  Al31  1  0.88528674  0.87541424  0.11005455  1
  Al  Al32  1  0.44468383  0.76960012  0.87612716  1
  Al  Al33  1  0.55596724  0.87541427  0.61005442  1
  B  B34  1  0.89040387  0.87059017  0.59645885  1
  B  B35  1  0.55567279  0.87059067  0.09645883  1
  N  N36  1  0.22651726  0.19979927  0.32545810  1
  N  N37  1  0.11118229  0.09410563  0.07753970  1
  N  N38  1  0.89035001  0.19979956  0.82545816  1
  N  N39  1  0.79120640  0.06298850  0.57821426  1
  N  N40  1  0.55748903  0.19954014  0.32848203  1
  N  N41  1  0.46247186  0.06298886  0.07821418  1
  N  N42  1  0.22504655  0.20014849  0.83338941  1
  N  N43  1  0.11137880  0.09410606  0.57753955  1
  N  N44  1  0.89147154  0.20014895  0.33338947  1
  N  N45  1  0.77446652  0.10606252  0.08120113  1
  N  N46  1  0.55963765  0.19954044  0.82848229  1
  N  N47  1  0.43613809  0.10606238  0.58120097  1
  N  N48  1  0.21875209  0.53764006  0.37927667  1
  N  N49  1  0.10389613  0.43412956  0.12747682  1
  N  N50  1  0.88565455  0.54272095  0.87848679  1
  N  N51  1  0.77863983  0.43412965  0.62747675  1
  N  N52  1  0.55969769  0.53701619  0.37829374  1
  N  N53  1  0.44979642  0.41910446  0.08810647  1
  N  N54  1  0.21995231  0.53701593  0.87829330  1
  N  N55  1  0.10519685  0.43291375  0.63235729  1
  N  N56  1  0.88829029  0.54272140  0.37848667  1
  N  N57  1  0.77855547  0.43291389  0.13235752  1
  N  N58  1  0.56027376  0.53764111  0.87927678  1
  N  N59  1  0.44776552  0.41910377  0.58810693  1
  N  N60  1  0.22425042  0.87339493  0.32798686  1
  N  N61  1  0.12238257  0.76247368  0.08604111  1
  N  N62  1  0.88472950  0.87071730  0.88673656  1
  N  N63  1  0.80122665  0.77511359  0.62141637  1
  N  N64  1  0.56122006  0.87071712  0.38673663  1
  N  N65  1  0.45792757  0.78129641  0.07656464  1
  N  N66  1  0.21902085  0.87339533  0.82798658  1
  N  N67  1  0.07744330  0.78129596  0.57656466  1
  N  N68  1  0.88944957  0.87283195  0.31080058  1
  N  N69  1  0.74032673  0.77511410  0.12141640  1
  N  N70  1  0.55438620  0.87283171  0.81080066  1
  N  N71  1  0.43181069  0.76247419  0.58604153  1
