# generated using pymatgen
data_Al17BN18
_symmetry_space_group_name_H-M   'P 1'
_cell_length_a   9.33483801
_cell_length_b   9.31831242
_cell_length_c   10.06144403
_cell_angle_alpha   89.74174902
_cell_angle_beta   89.99999303
_cell_angle_gamma   59.94132280
_symmetry_Int_Tables_number   1
_chemical_formula_structural   Al17BN18
_chemical_formula_sum   'Al34 B2 N36'
_cell_volume   757.48148597
_cell_formula_units_Z   2
loop_
 _symmetry_equiv_pos_site_id
 _symmetry_equiv_pos_as_xyz
  1  'x, y, z'
loop_
 _atom_site_type_symbol
 _atom_site_label
 _atom_site_symmetry_multiplicity
 _atom_site_fract_x
 _atom_site_fract_y
 _atom_site_fract_z
 _atom_site_occupancy
  Al  Al0  1  0.11297092  0.09443688  0.38733673  1
  Al  Al1  1  0.22721333  0.19865372  0.13500868  1
  Al  Al2  1  0.77671987  0.09657477  0.89249854  1
  Al  Al3  1  0.89079835  0.19865332  0.63500885  1
  Al  Al4  1  0.44337127  0.09657550  0.39249858  1
  Al  Al5  1  0.55784679  0.19933831  0.13820835  1
  Al  Al6  1  0.10925896  0.09443583  0.88733670  1
  Al  Al7  1  0.22048588  0.20715798  0.64082823  1
  Al  Al8  1  0.78107267  0.08549250  0.37913859  1
  Al  Al9  1  0.88902150  0.20715836  0.14082801  1
  Al  Al10  1  0.45010180  0.08549225  0.87913861  1
  Al  Al11  1  0.55948094  0.19933881  0.63820819  1
  Al  Al12  1  0.11497059  0.42534396  0.38315442  1
  Al  Al13  1  0.22606347  0.53784394  0.14041458  1
  Al  Al14  1  0.77635198  0.42534366  0.88315440  1
  Al  Al15  1  0.88979253  0.54586823  0.59097126  1
  Al  Al16  1  0.44646509  0.42664005  0.38726803  1
  Al  Al17  1  0.55686058  0.54283465  0.13483133  1
  Al  Al18  1  0.11380582  0.42805331  0.88491732  1
  Al  Al19  1  0.21697177  0.54283428  0.63483135  1
  Al  Al20  1  0.77480618  0.42805385  0.38491734  1
  Al  Al21  1  0.88100501  0.54586952  0.09097109  1
  Al  Al22  1  0.44356145  0.42663960  0.88726805  1
  Al  Al23  1  0.55275924  0.53784458  0.64041454  1
  Al  Al24  1  0.10481960  0.76434868  0.37769455  1
  Al  Al25  1  0.22926202  0.87483165  0.13836466  1
  Al  Al26  1  0.78419766  0.76605870  0.81466638  1
  Al  Al27  1  0.44322259  0.75892588  0.39312254  1
  Al  Al28  1  0.11452005  0.75892452  0.89312238  1
  Al  Al29  1  0.21257308  0.87483170  0.63836439  1
  Al  Al30  1  0.76641069  0.76605922  0.31466618  1
  Al  Al31  1  0.88586494  0.87566374  0.10441637  1
  Al  Al32  1  0.44749928  0.76434821  0.87769436  1
  Al  Al33  1  0.55514003  0.87566413  0.60441627  1
  B  B34  1  0.89122940  0.87128596  0.59376714  1
  B  B35  1  0.55415117  0.87128657  0.09376716  1
  N  N36  1  0.22529080  0.20331216  0.32365636  1
  N  N37  1  0.10958575  0.09583577  0.07703341  1
  N  N38  1  0.88806361  0.20331167  0.82365650  1
  N  N39  1  0.79308917  0.06305768  0.57686565  1
  N  N40  1  0.55548494  0.20406515  0.32764213  1
  N  N41  1  0.46051901  0.06305815  0.07686585  1
  N  N42  1  0.22280474  0.20469930  0.83044382  1
  N  N43  1  0.11124399  0.09583595  0.57703340  1
  N  N44  1  0.88916186  0.20469999  0.33044354  1
  N  N45  1  0.77336661  0.10670311  0.08066244  1
  N  N46  1  0.55711672  0.20406483  0.82764194  1
  N  N47  1  0.43659631  0.10670353  0.58066262  1
  N  N48  1  0.22461145  0.53841327  0.32947320  1
  N  N49  1  0.11561589  0.42710861  0.07769117  1
  N  N50  1  0.88754231  0.54049166  0.85118129  1
  N  N51  1  0.77394181  0.42710802  0.57769114  1
  N  N52  1  0.55378067  0.54063459  0.32384140  1
  N  N53  1  0.44537752  0.42553520  0.07742898  1
  N  N54  1  0.22225153  0.54063353  0.82384144  1
  N  N55  1  0.11603062  0.42499919  0.57513494  1
  N  N56  1  0.88863199  0.54049206  0.35118200  1
  N  N57  1  0.77563675  0.42499966  0.07513489  1
  N  N58  1  0.55364188  0.53841299  0.82947317  1
  N  N59  1  0.44575395  0.42553567  0.57742897  1
  N  N60  1  0.22395292  0.87244025  0.32774927  1
  N  N61  1  0.12612996  0.75640731  0.08196106  1
  N  N62  1  0.88710600  0.86893837  0.88746859  1
  N  N63  1  0.80120616  0.77749560  0.61803315  1
  N  N64  1  0.56062304  0.86893933  0.38746867  1
  N  N65  1  0.45869382  0.77716895  0.07569375  1
  N  N66  1  0.22027446  0.87243949  0.82774900  1
  N  N67  1  0.08080430  0.77716869  0.57569376  1
  N  N68  1  0.89098709  0.87220894  0.30971345  1
  N  N69  1  0.73796498  0.77749651  0.11803310  1
  N  N70  1  0.55347166  0.87220868  0.80971371  1
  N  N71  1  0.43413009  0.75640818  0.58196119  1
