# generated using pymatgen
data_Al17BN18
_symmetry_space_group_name_H-M   'P 1'
_cell_length_a   9.32703856
_cell_length_b   9.30309038
_cell_length_c   10.16938897
_cell_angle_alpha   89.50086154
_cell_angle_beta   90.00169145
_cell_angle_gamma   59.91659677
_symmetry_Int_Tables_number   1
_chemical_formula_structural   Al17BN18
_chemical_formula_sum   'Al34 B2 N36'
_cell_volume   763.49959443
_cell_formula_units_Z   2
loop_
 _symmetry_equiv_pos_site_id
 _symmetry_equiv_pos_as_xyz
  1  'x, y, z'
loop_
 _atom_site_type_symbol
 _atom_site_label
 _atom_site_symmetry_multiplicity
 _atom_site_fract_x
 _atom_site_fract_y
 _atom_site_fract_z
 _atom_site_occupancy
  Al  Al0  1  0.10782359  0.09561184  0.31049171  1
  Al  Al1  1  0.22059786  0.20431488  0.06296156  1
  Al  Al2  1  0.77588346  0.09351059  0.88741511  1
  Al  Al3  1  0.89174841  0.20425527  0.56293875  1
  Al  Al4  1  0.44729540  0.09351449  0.38738234  1
  Al  Al5  1  0.56061604  0.19169293  0.13377442  1
  Al  Al6  1  0.11323238  0.09563280  0.81048476  1
  Al  Al7  1  0.21251415  0.21275237  0.56144232  1
  Al  Al8  1  0.78023248  0.08041965  0.37560037  1
  Al  Al9  1  0.89140297  0.21277486  0.06146141  1
  Al  Al10  1  0.45601073  0.08039944  0.87573987  1
  Al  Al11  1  0.56436753  0.19165211  0.63388213  1
  Al  Al12  1  0.10918340  0.43034458  0.30899852  1
  Al  Al13  1  0.22501324  0.53879687  0.05575918  1
  Al  Al14  1  0.77714097  0.43033551  0.80898236  1
  Al  Al15  1  0.89059287  0.54604260  0.55758482  1
  Al  Al16  1  0.44028606  0.43252103  0.31037275  1
  Al  Al17  1  0.55709766  0.54256634  0.06134902  1
  Al  Al18  1  0.11222807  0.42739527  0.81098203  1
  Al  Al19  1  0.21703819  0.54252853  0.56137068  1
  Al  Al20  1  0.77704154  0.42739150  0.31098766  1
  Al  Al21  1  0.88000681  0.54606882  0.05757011  1
  Al  Al22  1  0.44384538  0.43253541  0.81043681  1
  Al  Al23  1  0.55286351  0.53874521  0.55577666  1
  Al  Al24  1  0.11501338  0.75918891  0.30344134  1
  Al  Al25  1  0.22833546  0.87543757  0.05856019  1
  Al  Al26  1  0.78490060  0.76300907  0.81047129  1
  Al  Al27  1  0.44512538  0.76619188  0.31683053  1
  Al  Al28  1  0.10533688  0.76621732  0.81681492  1
  Al  Al29  1  0.21291328  0.87541606  0.55856764  1
  Al  Al30  1  0.76876492  0.76299039  0.31046962  1
  Al  Al31  1  0.88642591  0.87243416  0.09434421  1
  Al  Al32  1  0.44247246  0.75921204  0.80342892  1
  Al  Al33  1  0.55781439  0.87244451  0.59433005  1
  B  B34  1  0.89214856  0.86962008  0.59936059  1
  B  B35  1  0.55488830  0.86961440  0.09936622  1
  N  N36  1  0.21411382  0.20945083  0.36952920  1
  N  N37  1  0.11080332  0.09510182  0.12321631  1
  N  N38  1  0.89311438  0.20945664  0.86954795  1
  N  N39  1  0.79435533  0.05871432  0.57449283  1
  N  N40  1  0.55737820  0.19814873  0.32181187  1
  N  N41  1  0.46356615  0.05871566  0.07448359  1
  N  N42  1  0.22207216  0.20687954  0.87404782  1
  N  N43  1  0.11076587  0.09509253  0.62320274  1
  N  N44  1  0.88772676  0.20685476  0.37401651  1
  N  N45  1  0.77249169  0.10342437  0.07507397  1
  N  N46  1  0.56111540  0.19815783  0.82193532  1
  N  N47  1  0.44077524  0.10342952  0.57503509  1
  N  N48  1  0.22073144  0.53969863  0.37341026  1
  N  N49  1  0.10870497  0.43208822  0.11956488  1
  N  N50  1  0.88889772  0.54002369  0.86983675  1
  N  N51  1  0.77588937  0.43203208  0.61955197  1
  N  N52  1  0.55424992  0.53873279  0.36785735  1
  N  N53  1  0.44320475  0.43044613  0.11953793  1
  N  N54  1  0.22365082  0.53876938  0.86785284  1
  N  N55  1  0.10866437  0.43028973  0.62306019  1
  N  N56  1  0.88774861  0.54001397  0.36985155  1
  N  N57  1  0.77769683  0.43031560  0.12306434  1
  N  N58  1  0.55624965  0.53972621  0.87340066  1
  N  N59  1  0.44303056  0.43040864  0.61960958  1
  N  N60  1  0.21968687  0.87272759  0.37046648  1
  N  N61  1  0.12573251  0.75651349  0.11612479  1
  N  N62  1  0.89315577  0.86338222  0.88455135  1
  N  N63  1  0.80215599  0.77320748  0.61524685  1
  N  N64  1  0.56014134  0.86338022  0.38453087  1
  N  N65  1  0.45730974  0.77745887  0.11978472  1
  N  N66  1  0.22426098  0.87274350  0.87045524  1
  N  N67  1  0.08189376  0.77745320  0.61977842  1
  N  N68  1  0.88774592  0.87128873  0.30817232  1
  N  N69  1  0.74128561  0.77322226  0.11523636  1
  N  N70  1  0.55762258  0.87133346  0.80818443  1
  N  N71  1  0.43445200  0.75649080  0.61611435  1
