# generated using pymatgen
data_Al17BN18
_symmetry_space_group_name_H-M   'P 1'
_cell_length_a   9.31160637
_cell_length_b   9.30233510
_cell_length_c   10.09731265
_cell_angle_alpha   89.62946057
_cell_angle_beta   90.00000603
_cell_angle_gamma   59.96702735
_symmetry_Int_Tables_number   1
_chemical_formula_structural   Al17BN18
_chemical_formula_sum   'Al34 B2 N36'
_cell_volume   757.17543272
_cell_formula_units_Z   2
loop_
 _symmetry_equiv_pos_site_id
 _symmetry_equiv_pos_as_xyz
  1  'x, y, z'
loop_
 _atom_site_type_symbol
 _atom_site_label
 _atom_site_symmetry_multiplicity
 _atom_site_fract_x
 _atom_site_fract_y
 _atom_site_fract_z
 _atom_site_occupancy
  Al  Al0  1  0.11306680  0.09451076  0.39561704  1
  Al  Al1  1  0.22747599  0.19860572  0.14303743  1
  Al  Al2  1  0.77638918  0.09761589  0.90130421  1
  Al  Al3  1  0.89058365  0.19860604  0.64303744  1
  Al  Al4  1  0.44266119  0.09761638  0.40130409  1
  Al  Al5  1  0.55779052  0.19908604  0.14665479  1
  Al  Al6  1  0.10908904  0.09450994  0.89561702  1
  Al  Al7  1  0.22045645  0.20722303  0.64865654  1
  Al  Al8  1  0.78123053  0.08675840  0.38781015  1
  Al  Al9  1  0.88898596  0.20722304  0.14865648  1
  Al  Al10  1  0.44867791  0.08675835  0.88781034  1
  Al  Al11  1  0.55978973  0.19908645  0.64665461  1
  Al  Al12  1  0.11110506  0.42742896  0.39297408  1
  Al  Al13  1  0.22552281  0.53744213  0.14849385  1
  Al  Al14  1  0.77813371  0.42742875  0.89297417  1
  Al  Al15  1  0.89433324  0.53702052  0.64072931  1
  Al  Al16  1  0.44652493  0.42674972  0.39527527  1
  Al  Al17  1  0.55762441  0.54271447  0.14236720  1
  Al  Al18  1  0.10998272  0.42996565  0.89458733  1
  Al  Al19  1  0.21632880  0.54271395  0.64236722  1
  Al  Al20  1  0.77671835  0.42996652  0.39458740  1
  Al  Al21  1  0.88531446  0.53701993  0.14072906  1
  Al  Al22  1  0.44339284  0.42674921  0.89527520  1
  Al  Al23  1  0.55370273  0.53744279  0.64849385  1
  Al  Al24  1  0.10539083  0.76431131  0.38644235  1
  Al  Al25  1  0.22948336  0.87449370  0.14683421  1
  Al  Al26  1  0.78134562  0.77041085  0.82441753  1
  Al  Al27  1  0.44332737  0.75842526  0.40189833  1
  Al  Al28  1  0.11491502  0.75842402  0.90189814  1
  Al  Al29  1  0.21268898  0.87449387  0.64683393  1
  Al  Al30  1  0.76490922  0.77041028  0.32441685  1
  Al  Al31  1  0.88528502  0.87454210  0.11138993  1
  Al  Al32  1  0.44696410  0.76431092  0.88644227  1
  Al  Al33  1  0.55683931  0.87454348  0.61139006  1
  B  B34  1  0.89100291  0.87017654  0.60152804  1
  B  B35  1  0.55548682  0.87017655  0.10152784  1
  N  N36  1  0.22461918  0.20455448  0.33176130  1
  N  N37  1  0.10978154  0.09555835  0.08494504  1
  N  N38  1  0.88749287  0.20455424  0.83176132  1
  N  N39  1  0.79298525  0.06331231  0.58472340  1
  N  N40  1  0.55547957  0.20419614  0.33552737  1
  N  N41  1  0.46036863  0.06331229  0.08472360  1
  N  N42  1  0.22138784  0.20624827  0.83824309  1
  N  N43  1  0.11132562  0.09555861  0.58494502  1
  N  N44  1  0.88902984  0.20624892  0.33824298  1
  N  N45  1  0.77335354  0.10678650  0.08882896  1
  N  N46  1  0.55699116  0.20419573  0.83552722  1
  N  N47  1  0.43652560  0.10678750  0.58882893  1
  N  N48  1  0.22372204  0.53824747  0.33759363  1
  N  N49  1  0.11205626  0.42859401  0.08434379  1
  N  N50  1  0.88977309  0.53601344  0.83153520  1
  N  N51  1  0.77601710  0.42859453  0.58434383  1
  N  N52  1  0.55498299  0.54051647  0.33168148  1
  N  N53  1  0.44535895  0.42549839  0.08526631  1
  N  N54  1  0.22116818  0.54051546  0.83168143  1
  N  N55  1  0.11159287  0.42685674  0.58166920  1
  N  N56  1  0.89088089  0.53601329  0.33153497  1
  N  N57  1  0.77821764  0.42685672  0.08166930  1
  N  N58  1  0.55469794  0.53824717  0.83759368  1
  N  N59  1  0.44581017  0.42549880  0.58526638  1
  N  N60  1  0.22434733  0.87258678  0.33574046  1
  N  N61  1  0.12626251  0.75612987  0.09021168  1
  N  N62  1  0.88683200  0.86891267  0.89802473  1
  N  N63  1  0.80164424  0.77692487  0.62678336  1
  N  N64  1  0.56092182  0.86891349  0.39802473  1
  N  N65  1  0.45848006  0.77686225  0.08356196  1
  N  N66  1  0.21973246  0.87258624  0.83574018  1
  N  N67  1  0.08132402  0.77686208  0.58356204  1
  N  N68  1  0.89135026  0.87324460  0.31873870  1
  N  N69  1  0.73809737  0.77692439  0.12678295  1
  N  N70  1  0.55207070  0.87324498  0.81873885  1
  N  N71  1  0.43427418  0.75613079  0.59021184  1
