# generated using pymatgen
data_Al17BN18
_symmetry_space_group_name_H-M   'P 1'
_cell_length_a   9.33749177
_cell_length_b   9.34316044
_cell_length_c   10.16035593
_cell_angle_alpha   89.73008526
_cell_angle_beta   90.04135832
_cell_angle_gamma   59.88707508
_symmetry_Int_Tables_number   1
_chemical_formula_structural   Al17BN18
_chemical_formula_sum   'Al34 B2 N36'
_cell_volume   766.76220624
_cell_formula_units_Z   2
loop_
 _symmetry_equiv_pos_site_id
 _symmetry_equiv_pos_as_xyz
  1  'x, y, z'
loop_
 _atom_site_type_symbol
 _atom_site_label
 _atom_site_symmetry_multiplicity
 _atom_site_fract_x
 _atom_site_fract_y
 _atom_site_fract_z
 _atom_site_occupancy
  Al  Al0  1  0.11193726  0.09425797  0.38968687  1
  Al  Al1  1  0.23016456  0.19404176  0.13416567  1
  Al  Al2  1  0.77717055  0.09703178  0.89491926  1
  Al  Al3  1  0.89283421  0.19343195  0.63583321  1
  Al  Al4  1  0.44231154  0.09697974  0.39466401  1
  Al  Al5  1  0.55887277  0.19770978  0.14131380  1
  Al  Al6  1  0.10958169  0.09386471  0.89041638  1
  Al  Al7  1  0.22279799  0.20027313  0.64160497  1
  Al  Al8  1  0.78074685  0.08514941  0.38117113  1
  Al  Al9  1  0.89424186  0.19931756  0.14198787  1
  Al  Al10  1  0.45162366  0.08472925  0.88196028  1
  Al  Al11  1  0.55930610  0.19756954  0.64084922  1
  Al  Al12  1  0.10426330  0.42961193  0.31818375  1
  Al  Al13  1  0.22867664  0.54150466  0.14169030  1
  Al  Al14  1  0.77794342  0.43197912  0.81952974  1
  Al  Al15  1  0.89182262  0.54477199  0.56310436  1
  Al  Al16  1  0.44503323  0.42468338  0.38806160  1
  Al  Al17  1  0.55904324  0.54144722  0.09130658  1
  Al  Al18  1  0.10585974  0.43172985  0.82251636  1
  Al  Al19  1  0.21722951  0.54663128  0.63515017  1
  Al  Al20  1  0.77299104  0.43479562  0.31859658  1
  Al  Al21  1  0.88248383  0.54464468  0.06365744  1
  Al  Al22  1  0.44189408  0.42388977  0.88879755  1
  Al  Al23  1  0.55225747  0.53844423  0.60908837  1
  Al  Al24  1  0.10483652  0.76457587  0.37963389  1
  Al  Al25  1  0.23168485  0.87377815  0.14174687  1
  Al  Al26  1  0.78568436  0.76614297  0.81414891  1
  Al  Al27  1  0.44168105  0.76173122  0.39401171  1
  Al  Al28  1  0.11498858  0.75986157  0.89591625  1
  Al  Al29  1  0.21082993  0.87546404  0.64127550  1
  Al  Al30  1  0.76557131  0.76604061  0.31404123  1
  Al  Al31  1  0.88606093  0.87421064  0.10616808  1
  Al  Al32  1  0.44559953  0.76877263  0.87689091  1
  Al  Al33  1  0.55745133  0.87524158  0.60596934  1
  B  B34  1  0.89085421  0.86981605  0.59516976  1
  B  B35  1  0.55647439  0.87049760  0.09539921  1
  N  N36  1  0.22661016  0.19759788  0.32492710  1
  N  N37  1  0.11176968  0.09317732  0.07741499  1
  N  N38  1  0.89124195  0.19858597  0.82548386  1
  N  N39  1  0.79217712  0.06198848  0.57795123  1
  N  N40  1  0.55513193  0.20273086  0.32879060  1
  N  N41  1  0.46324882  0.06220327  0.07776965  1
  N  N42  1  0.22557743  0.19947750  0.83400858  1
  N  N43  1  0.11101348  0.09438657  0.57719608  1
  N  N44  1  0.89055635  0.20075245  0.33309206  1
  N  N45  1  0.77374993  0.10602268  0.08130236  1
  N  N46  1  0.55777847  0.20311388  0.82810893  1
  N  N47  1  0.43667848  0.10617768  0.58103141  1
  N  N48  1  0.22389257  0.54039307  0.33295056  1
  N  N49  1  0.10602984  0.43240782  0.12278285  1
  N  N50  1  0.88593408  0.54362752  0.87737966  1
  N  N51  1  0.77857444  0.43336489  0.62650112  1
  N  N52  1  0.54988064  0.54178674  0.34612662  1
  N  N53  1  0.44429918  0.42036303  0.07813325  1
  N  N54  1  0.22403250  0.54522313  0.82580953  1
  N  N55  1  0.10495726  0.42971816  0.62723589  1
  N  N56  1  0.88613873  0.54274830  0.37702912  1
  N  N57  1  0.78247456  0.42970952  0.12648316  1
  N  N58  1  0.55558888  0.53889935  0.86378405  1
  N  N59  1  0.44392001  0.42213870  0.57919830  1
  N  N60  1  0.22285831  0.87321718  0.32910499  1
  N  N61  1  0.12729869  0.75802719  0.08280087  1
  N  N62  1  0.88704373  0.86891042  0.88922341  1
  N  N63  1  0.80297144  0.77437026  0.62040476  1
  N  N64  1  0.56138977  0.86925257  0.38958139  1
  N  N65  1  0.45796625  0.78145843  0.07569901  1
  N  N66  1  0.21925748  0.87349637  0.82830497  1
  N  N67  1  0.08050678  0.77774041  0.57603381  1
  N  N68  1  0.89083188  0.87143895  0.31101667  1
  N  N69  1  0.74061367  0.77438655  0.12054377  1
  N  N70  1  0.55502581  0.87247159  0.80983022  1
  N  N71  1  0.43130642  0.76175095  0.58490114  1
