# generated using pymatgen
data_Al17BN18
_symmetry_space_group_name_H-M   'P 1'
_cell_length_a   9.32341253
_cell_length_b   9.31192762
_cell_length_c   10.25213730
_cell_angle_alpha   89.79134568
_cell_angle_beta   89.99997100
_cell_angle_gamma   59.95933046
_symmetry_Int_Tables_number   1
_chemical_formula_structural   Al17BN18
_chemical_formula_sum   'Al34 B2 N36'
_cell_volume   770.50874136
_cell_formula_units_Z   2
loop_
 _symmetry_equiv_pos_site_id
 _symmetry_equiv_pos_as_xyz
  1  'x, y, z'
loop_
 _atom_site_type_symbol
 _atom_site_label
 _atom_site_symmetry_multiplicity
 _atom_site_fract_x
 _atom_site_fract_y
 _atom_site_fract_z
 _atom_site_occupancy
  Al  Al0  1  0.11244739  0.09570599  0.39102340  1
  Al  Al1  1  0.23004448  0.19320397  0.13748172  1
  Al  Al2  1  0.77632218  0.09821425  0.89645269  1
  Al  Al3  1  0.89341885  0.19320392  0.63748183  1
  Al  Al4  1  0.44213055  0.09821399  0.39645249  1
  Al  Al5  1  0.56183333  0.19217386  0.14263630  1
  Al  Al6  1  0.10851329  0.09570590  0.89102353  1
  Al  Al7  1  0.22254871  0.20036641  0.64402934  1
  Al  Al8  1  0.78095624  0.08552695  0.38409660  1
  Al  Al9  1  0.89375239  0.20036644  0.14402947  1
  Al  Al10  1  0.45018424  0.08552662  0.88409653  1
  Al  Al11  1  0.56266037  0.19217376  0.64263645  1
  Al  Al12  1  0.10713019  0.43482652  0.31609519  1
  Al  Al13  1  0.22796409  0.53097895  0.07038218  1
  Al  Al14  1  0.77470865  0.43482672  0.81609518  1
  Al  Al15  1  0.89132852  0.54546833  0.56486698  1
  Al  Al16  1  0.44323199  0.43109524  0.32357030  1
  Al  Al17  1  0.56206449  0.53500822  0.06979686  1
  Al  Al18  1  0.10684888  0.43497361  0.82113090  1
  Al  Al19  1  0.21959369  0.53500803  0.56979712  1
  Al  Al20  1  0.77484267  0.43497417  0.32113088  1
  Al  Al21  1  0.87986872  0.54546891  0.06486718  1
  Al  Al22  1  0.44233861  0.43109528  0.82357048  1
  Al  Al23  1  0.55772275  0.53097950  0.57038254  1
  Al  Al24  1  0.10288369  0.76887368  0.37759911  1
  Al  Al25  1  0.23241068  0.87217189  0.14159883  1
  Al  Al26  1  0.78508626  0.76591784  0.81427986  1
  Al  Al27  1  0.43947705  0.76740835  0.39728590  1
  Al  Al28  1  0.10978074  0.76740843  0.89728559  1
  Al  Al29  1  0.21208398  0.87217260  0.64159858  1
  Al  Al30  1  0.76566253  0.76591882  0.31427975  1
  Al  Al31  1  0.88619172  0.87481402  0.11014094  1
  Al  Al32  1  0.44490847  0.76887447  0.87759878  1
  Al  Al33  1  0.55566263  0.87481415  0.61014071  1
  B  B34  1  0.89089660  0.87003955  0.59654113  1
  B  B35  1  0.55573070  0.87003996  0.09654110  1
  N  N36  1  0.22651955  0.19979198  0.32549312  1
  N  N37  1  0.11109084  0.09409417  0.07748305  1
  N  N38  1  0.89035547  0.19979219  0.82549318  1
  N  N39  1  0.79168577  0.06308365  0.57822649  1
  N  N40  1  0.55884242  0.19742624  0.33035179  1
  N  N41  1  0.46189752  0.06308396  0.07822647  1
  N  N42  1  0.22487371  0.19995097  0.83337346  1
  N  N43  1  0.11148172  0.09409460  0.57748288  1
  N  N44  1  0.89184229  0.19995150  0.33337348  1
  N  N45  1  0.77425813  0.10658490  0.08104347  1
  N  N46  1  0.56039859  0.19742638  0.83035191  1
  N  N47  1  0.43582418  0.10658498  0.58104338  1
  N  N48  1  0.22395288  0.53454149  0.38242340  1
  N  N49  1  0.10484470  0.43473096  0.12770142  1
  N  N50  1  0.88540921  0.54280789  0.87898242  1
  N  N51  1  0.77709001  0.43473091  0.62770140  1
  N  N52  1  0.55844920  0.53340264  0.38198327  1
  N  N53  1  0.44528493  0.42894143  0.12967076  1
  N  N54  1  0.22481417  0.53340245  0.88198300  1
  N  N55  1  0.10561690  0.43370726  0.63296456  1
  N  N56  1  0.88844879  0.54280833  0.37898226  1
  N  N57  1  0.77734153  0.43370744  0.13296462  1
  N  N58  1  0.55817145  0.53454208  0.88242330  1
  N  N59  1  0.44243967  0.42894149  0.62967109  1
  N  N60  1  0.22480947  0.87245141  0.32788349  1
  N  N61  1  0.12291469  0.76179945  0.08580390  1
  N  N62  1  0.88519434  0.87044815  0.88683651  1
  N  N63  1  0.80086672  0.77541482  0.62167700  1
  N  N64  1  0.56102447  0.87044796  0.38683660  1
  N  N65  1  0.45819573  0.78066123  0.07640575  1
  N  N66  1  0.21940548  0.87245173  0.82788322  1
  N  N67  1  0.07780988  0.78066108  0.57640578  1
  N  N68  1  0.89040359  0.87225932  0.31096945  1
  N  N69  1  0.74038511  0.77541547  0.12167704  1
  N  N70  1  0.55400490  0.87225897  0.81096948  1
  N  N71  1  0.43195252  0.76180013  0.58580427  1
