# generated using pymatgen
data_Al17BN18
_symmetry_space_group_name_H-M   'P 1'
_cell_length_a   9.36188082
_cell_length_b   9.29871558
_cell_length_c   10.22091200
_cell_angle_alpha   89.37743038
_cell_angle_beta   90.00002288
_cell_angle_gamma   59.77514084
_symmetry_Int_Tables_number   1
_chemical_formula_structural   Al17BN18
_chemical_formula_sum   'Al34 B2 N36'
_cell_volume   768.74712940
_cell_formula_units_Z   2
loop_
 _symmetry_equiv_pos_site_id
 _symmetry_equiv_pos_as_xyz
  1  'x, y, z'
loop_
 _atom_site_type_symbol
 _atom_site_label
 _atom_site_symmetry_multiplicity
 _atom_site_fract_x
 _atom_site_fract_y
 _atom_site_fract_z
 _atom_site_occupancy
  Al  Al0  1  0.11233632  0.09503272  0.39091712  1
  Al  Al1  1  0.22896130  0.19512328  0.13856306  1
  Al  Al2  1  0.77551177  0.09942157  0.89693836  1
  Al  Al3  1  0.89258260  0.19512252  0.63856335  1
  Al  Al4  1  0.44173363  0.09942151  0.39693820  1
  Al  Al5  1  0.56181371  0.19231457  0.14424680  1
  Al  Al6  1  0.10929834  0.09503126  0.89091718  1
  Al  Al7  1  0.22506139  0.20055701  0.64517386  1
  Al  Al8  1  0.78257473  0.08355493  0.38913642  1
  Al  Al9  1  0.89104843  0.20055773  0.14517370  1
  Al  Al10  1  0.45053746  0.08355402  0.88913634  1
  Al  Al11  1  0.56253978  0.19231397  0.64424690  1
  Al  Al12  1  0.10798914  0.43469461  0.31793958  1
  Al  Al13  1  0.22494084  0.53758062  0.06546763  1
  Al  Al14  1  0.77398333  0.43469417  0.81793982  1
  Al  Al15  1  0.89252354  0.54355299  0.56741750  1
  Al  Al16  1  0.44130645  0.43294707  0.32036940  1
  Al  Al17  1  0.55825987  0.54194759  0.07027473  1
  Al  Al18  1  0.10770412  0.43333087  0.82258667  1
  Al  Al19  1  0.21646024  0.54194653  0.57027461  1
  Al  Al20  1  0.77563085  0.43333183  0.32258632  1
  Al  Al21  1  0.88058992  0.54355381  0.06741753  1
  Al  Al22  1  0.44241354  0.43294657  0.82036921  1
  Al  Al23  1  0.55414609  0.53758053  0.56546755  1
  Al  Al24  1  0.11065714  0.75824463  0.31357256  1
  Al  Al25  1  0.22731808  0.87747831  0.13089048  1
  Al  Al26  1  0.78202997  0.76546874  0.82008094  1
  Al  Al27  1  0.45169169  0.76436456  0.33025398  1
  Al  Al28  1  0.10061001  0.76436311  0.83025365  1
  Al  Al29  1  0.21186964  0.87747822  0.63088998  1
  Al  Al30  1  0.76916756  0.76546880  0.32008113  1
  Al  Al31  1  0.88444341  0.87183190  0.09640816  1
  Al  Al32  1  0.44776452  0.75824303  0.81357218  1
  Al  Al33  1  0.56039082  0.87183236  0.59640877  1
  B  B34  1  0.89102626  0.86897195  0.60718476  1
  B  B35  1  0.55666884  0.86897237  0.10718514  1
  N  N36  1  0.22701998  0.19929455  0.32642175  1
  N  N37  1  0.10752632  0.09918706  0.07708768  1
  N  N38  1  0.89035292  0.19929407  0.82642187  1
  N  N39  1  0.79352611  0.06219134  0.58362638  1
  N  N40  1  0.55935321  0.19821543  0.33246813  1
  N  N41  1  0.46094936  0.06219175  0.08362645  1
  N  N42  1  0.22641247  0.19924882  0.83503246  1
  N  N43  1  0.10995331  0.09918696  0.57708763  1
  N  N44  1  0.89100500  0.19924982  0.33503235  1
  N  N45  1  0.77312630  0.10630362  0.08136083  1
  N  N46  1  0.55909864  0.19821482  0.83246811  1
  N  N47  1  0.43723709  0.10630379  0.58136077  1
  N  N48  1  0.22201160  0.53879490  0.38369071  1
  N  N49  1  0.10605204  0.43604265  0.12751221  1
  N  N50  1  0.88710576  0.53991140  0.88083237  1
  N  N51  1  0.77457233  0.43604212  0.62751244  1
  N  N52  1  0.55569430  0.53752246  0.37955500  1
  N  N53  1  0.44264574  0.43227339  0.13042891  1
  N  N54  1  0.22345055  0.53752154  0.87955498  1
  N  N55  1  0.10727894  0.43392036  0.63343855  1
  N  N56  1  0.88964974  0.53991148  0.38083224  1
  N  N57  1  0.77546713  0.43392102  0.13343835  1
  N  N58  1  0.55586080  0.53879417  0.88369081  1
  N  N59  1  0.44174844  0.43227286  0.63042878  1
  N  N60  1  0.22303446  0.87480404  0.33360243  1
  N  N61  1  0.11948286  0.75563673  0.12288009  1
  N  N62  1  0.88912937  0.86575006  0.89552877  1
  N  N63  1  0.80003807  0.77458104  0.62536323  1
  N  N64  1  0.56178695  0.86575029  0.39552885  1
  N  N65  1  0.46307760  0.77602019  0.12862977  1
  N  N66  1  0.21882822  0.87480261  0.83360252  1
  N  N67  1  0.07756877  0.77601952  0.62862949  1
  N  N68  1  0.88644277  0.87275812  0.32340115  1
  N  N69  1  0.74204679  0.77458156  0.12536323  1
  N  N70  1  0.55746537  0.87275729  0.82340054  1
  N  N71  1  0.44154626  0.75563678  0.62287967  1
