# generated using pymatgen
data_Al17BN18
_symmetry_space_group_name_H-M   'P 1'
_cell_length_a   9.31052047
_cell_length_b   9.30028777
_cell_length_c   10.04919467
_cell_angle_alpha   89.85584236
_cell_angle_beta   90.00002242
_cell_angle_gamma   59.96357686
_symmetry_Int_Tables_number   1
_chemical_formula_structural   Al17BN18
_chemical_formula_sum   'Al34 B2 N36'
_cell_volume   753.30506742
_cell_formula_units_Z   2
loop_
 _symmetry_equiv_pos_site_id
 _symmetry_equiv_pos_as_xyz
  1  'x, y, z'
loop_
 _atom_site_type_symbol
 _atom_site_label
 _atom_site_symmetry_multiplicity
 _atom_site_fract_x
 _atom_site_fract_y
 _atom_site_fract_z
 _atom_site_occupancy
  Al  Al0  1  0.11275275  0.09451468  0.39705332  1
  Al  Al1  1  0.22696858  0.19920050  0.14504998  1
  Al  Al2  1  0.77854477  0.09456845  0.89954653  1
  Al  Al3  1  0.89049653  0.19920067  0.64504977  1
  Al  Al4  1  0.44355349  0.09456861  0.39954592  1
  Al  Al5  1  0.55794292  0.19881530  0.14764958  1
  Al  Al6  1  0.10939990  0.09451348  0.89705323  1
  Al  Al7  1  0.22062019  0.20714859  0.64928396  1
  Al  Al8  1  0.77987424  0.08853207  0.38992390  1
  Al  Al9  1  0.88889675  0.20714872  0.14928405  1
  Al  Al10  1  0.44826160  0.08853171  0.88992503  1
  Al  Al11  1  0.55990803  0.19881565  0.64764901  1
  Al  Al12  1  0.11119438  0.42691109  0.39548195  1
  Al  Al13  1  0.22448390  0.53794657  0.14940037  1
  Al  Al14  1  0.77856215  0.42691040  0.89548188  1
  Al  Al15  1  0.89138363  0.54340816  0.64578295  1
  Al  Al16  1  0.44580465  0.42696614  0.39680704  1
  Al  Al17  1  0.55778046  0.54271284  0.14487758  1
  Al  Al18  1  0.11066608  0.42988994  0.89686098  1
  Al  Al19  1  0.21617367  0.54271242  0.64487756  1
  Al  Al20  1  0.77611018  0.42989143  0.39686105  1
  Al  Al21  1  0.88187549  0.54340701  0.14578280  1
  Al  Al22  1  0.44389622  0.42696553  0.89680682  1
  Al  Al23  1  0.55423700  0.53794754  0.64940031  1
  Al  Al24  1  0.10642096  0.76410258  0.38891883  1
  Al  Al25  1  0.22883842  0.87439538  0.14768722  1
  Al  Al26  1  0.77355065  0.76427147  0.88840986  1
  Al  Al27  1  0.44409109  0.76013510  0.40023398  1
  Al  Al28  1  0.11244123  0.76013384  0.90023445  1
  Al  Al29  1  0.21343290  0.87439533  0.64768653  1
  Al  Al30  1  0.77884264  0.76427304  0.38840624  1
  Al  Al31  1  0.88461279  0.87425503  0.12746103  1
  Al  Al32  1  0.44614280  0.76410213  0.88891964  1
  Al  Al33  1  0.55779915  0.87425634  0.62746474  1
  B  B34  1  0.89011862  0.87004325  0.60463370  1
  B  B35  1  0.55650428  0.87004316  0.10463665  1
  N  N36  1  0.22323712  0.20538011  0.33418244  1
  N  N37  1  0.11008488  0.09526102  0.08672285  1
  N  N38  1  0.88804978  0.20537930  0.83418223  1
  N  N39  1  0.79266278  0.06368440  0.58649437  1
  N  N40  1  0.55505268  0.20472983  0.33718970  1
  N  N41  1  0.46031914  0.06368456  0.08649503  1
  N  N42  1  0.22190102  0.20602809  0.83975100  1
  N  N43  1  0.11131983  0.09526123  0.58672283  1
  N  N44  1  0.88873713  0.20602943  0.33975099  1
  N  N45  1  0.77528286  0.10253780  0.08919230  1
  N  N46  1  0.55688477  0.20472925  0.83718914  1
  N  N47  1  0.43884576  0.10253751  0.58919190  1
  N  N48  1  0.22287859  0.53856744  0.33937332  1
  N  N49  1  0.11063854  0.42914102  0.08738247  1
  N  N50  1  0.88853358  0.53937046  0.83561399  1
  N  N51  1  0.77688744  0.42914145  0.58738253  1
  N  N52  1  0.55461625  0.53965445  0.33438870  1
  N  N53  1  0.44540336  0.42584184  0.08735403  1
  N  N54  1  0.22239628  0.53965356  0.83438855  1
  N  N55  1  0.11056380  0.42735806  0.58531551  1
  N  N56  1  0.88876280  0.53937087  0.33561367  1
  N  N57  1  0.77874476  0.42735784  0.08531536  1
  N  N58  1  0.55522105  0.53856715  0.83937333  1
  N  N59  1  0.44542174  0.42584267  0.58735424  1
  N  N60  1  0.22301545  0.87237374  0.33721905  1
  N  N61  1  0.12122136  0.75802750  0.09056239  1
  N  N62  1  0.88983905  0.87113769  0.87168288  1
  N  N63  1  0.79817191  0.77375461  0.58935274  1
  N  N64  1  0.55568846  0.87113899  0.37167564  1
  N  N65  1  0.45868501  0.77641511  0.08579309  1
  N  N66  1  0.22127753  0.87237282  0.83721836  1
  N  N67  1  0.08156601  0.77641501  0.58579275  1
  N  N68  1  0.88916427  0.87137917  0.32207211  1
  N  N69  1  0.74473997  0.77375340  0.08935355  1
  N  N70  1  0.55612375  0.87137861  0.82207385  1
  N  N71  1  0.43741908  0.75802903  0.59056215  1
