# generated using pymatgen
data_Al17BN18
_symmetry_space_group_name_H-M   'P 1'
_cell_length_a   9.34513640
_cell_length_b   9.30633071
_cell_length_c   10.19396068
_cell_angle_alpha   89.45548520
_cell_angle_beta   90.00003563
_cell_angle_gamma   59.86216712
_symmetry_Int_Tables_number   1
_chemical_formula_structural   Al17BN18
_chemical_formula_sum   'Al34 B2 N36'
_cell_volume   766.66673444
_cell_formula_units_Z   2
loop_
 _symmetry_equiv_pos_site_id
 _symmetry_equiv_pos_as_xyz
  1  'x, y, z'
loop_
 _atom_site_type_symbol
 _atom_site_label
 _atom_site_symmetry_multiplicity
 _atom_site_fract_x
 _atom_site_fract_y
 _atom_site_fract_z
 _atom_site_occupancy
  Al  Al0  1  0.10942214  0.10035241  0.38342520  1
  Al  Al1  1  0.22864425  0.19504288  0.13774392  1
  Al  Al2  1  0.77613850  0.09769283  0.89814941  1
  Al  Al3  1  0.89297918  0.19504228  0.63774381  1
  Al  Al4  1  0.44283431  0.09769278  0.39814906  1
  Al  Al5  1  0.56132173  0.19158815  0.14474888  1
  Al  Al6  1  0.10689131  0.10035227  0.88342483  1
  Al  Al7  1  0.22566953  0.20125009  0.64504192  1
  Al  Al8  1  0.78238751  0.08239844  0.38934833  1
  Al  Al9  1  0.88974699  0.20125012  0.14504184  1
  Al  Al10  1  0.45187918  0.08239937  0.88934861  1
  Al  Al11  1  0.56375688  0.19158829  0.64474906  1
  Al  Al12  1  0.10795659  0.43613973  0.31805045  1
  Al  Al13  1  0.22467420  0.53860546  0.06634121  1
  Al  Al14  1  0.77257051  0.43613941  0.81805049  1
  Al  Al15  1  0.89290997  0.54386387  0.56799788  1
  Al  Al16  1  0.44134224  0.43207291  0.32134706  1
  Al  Al17  1  0.55796417  0.54107864  0.07136367  1
  Al  Al18  1  0.10775106  0.43534171  0.82343512  1
  Al  Al19  1  0.21762438  0.54107849  0.57136370  1
  Al  Al20  1  0.77357343  0.43534170  0.32343499  1
  Al  Al21  1  0.87989259  0.54386448  0.06799798  1
  Al  Al22  1  0.44325126  0.43207381  0.82134675  1
  Al  Al23  1  0.55338798  0.53860591  0.56634125  1
  Al  Al24  1  0.11403233  0.76028191  0.31311874  1
  Al  Al25  1  0.23121524  0.86928111  0.06897940  1
  Al  Al26  1  0.78284160  0.76554357  0.82122006  1
  Al  Al27  1  0.44546565  0.76686927  0.32663768  1
  Al  Al28  1  0.10433145  0.76686910  0.82663764  1
  Al  Al29  1  0.21617133  0.86928092  0.56897973  1
  Al  Al30  1  0.76828134  0.76554349  0.32122000  1
  Al  Al31  1  0.88613672  0.87153765  0.10060963  1
  Al  Al32  1  0.44235301  0.76028255  0.81311883  1
  Al  Al33  1  0.55899234  0.87153894  0.60060960  1
  B  B34  1  0.89236750  0.86924851  0.60879334  1
  B  B35  1  0.55505022  0.86924901  0.10879339  1
  N  N36  1  0.22843668  0.20043711  0.32623548  1
  N  N37  1  0.10616462  0.10007370  0.08325477  1
  N  N38  1  0.88779240  0.20043685  0.82623541  1
  N  N39  1  0.79461830  0.06104122  0.58373579  1
  N  N40  1  0.55934219  0.19749504  0.33333483  1
  N  N41  1  0.46100625  0.06104173  0.08373595  1
  N  N42  1  0.22763289  0.20138286  0.83605109  1
  N  N43  1  0.11042776  0.10007367  0.58325505  1
  N  N44  1  0.88765041  0.20138272  0.33605115  1
  N  N45  1  0.77278135  0.10532754  0.08241082  1
  N  N46  1  0.55982874  0.19749574  0.83333499  1
  N  N47  1  0.43855700  0.10532827  0.58241054  1
  N  N48  1  0.22177061  0.53957880  0.38417130  1
  N  N49  1  0.10548306  0.43728275  0.12754041  1
  N  N50  1  0.88678560  0.54033665  0.88117619  1
  N  N51  1  0.77390111  0.43728226  0.62754048  1
  N  N52  1  0.55347674  0.53960602  0.37952397  1
  N  N53  1  0.44287339  0.43055564  0.13076313  1
  N  N54  1  0.22358429  0.53960589  0.87952393  1
  N  N55  1  0.10760851  0.43461668  0.63413408  1
  N  N56  1  0.88954466  0.54033652  0.38117609  1
  N  N57  1  0.77444145  0.43461663  0.13413399  1
  N  N58  1  0.55531777  0.53957935  0.88417126  1
  N  N59  1  0.44323794  0.43055601  0.63076298  1
  N  N60  1  0.22320436  0.86690507  0.37937104  1
  N  N61  1  0.12431739  0.75667884  0.12696102  1
  N  N62  1  0.89236516  0.86451427  0.89577134  1
  N  N63  1  0.80174123  0.77453708  0.62574291  1
  N  N64  1  0.55978753  0.86451442  0.39577122  1
  N  N65  1  0.45726983  0.77810043  0.13060915  1
  N  N66  1  0.22655787  0.86690493  0.87937065  1
  N  N67  1  0.08129630  0.77810041  0.63060908  1
  N  N68  1  0.88745123  0.87220689  0.32114273  1
  N  N69  1  0.74038769  0.77453749  0.12574288  1
  N  N70  1  0.55700894  0.87220806  0.82114289  1
  N  N71  1  0.43567108  0.75667930  0.62696108  1
