# generated using pymatgen
data_Al17BN18
_symmetry_space_group_name_H-M   'P 1'
_cell_length_a   9.32239422
_cell_length_b   9.29681417
_cell_length_c   10.28739006
_cell_angle_alpha   89.74914281
_cell_angle_beta   90.08953873
_cell_angle_gamma   59.86945288
_symmetry_Int_Tables_number   1
_chemical_formula_structural   Al17BN18
_chemical_formula_sum   'Al34 B2 N36'
_cell_volume   771.11007127
_cell_formula_units_Z   2
loop_
 _symmetry_equiv_pos_site_id
 _symmetry_equiv_pos_as_xyz
  1  'x, y, z'
loop_
 _atom_site_type_symbol
 _atom_site_label
 _atom_site_symmetry_multiplicity
 _atom_site_fract_x
 _atom_site_fract_y
 _atom_site_fract_z
 _atom_site_occupancy
  Al  Al0  1  0.11315599  0.09395774  0.39199055  1
  Al  Al1  1  0.22996809  0.19355659  0.13874484  1
  Al  Al2  1  0.77474455  0.10043082  0.89673291  1
  Al  Al3  1  0.89360196  0.19288971  0.63749182  1
  Al  Al4  1  0.44285282  0.09766809  0.39713298  1
  Al  Al5  1  0.56231905  0.19079737  0.14429499  1
  Al  Al6  1  0.10853771  0.09699845  0.89077574  1
  Al  Al7  1  0.22225787  0.20170903  0.64326967  1
  Al  Al8  1  0.78222734  0.08370130  0.38571025  1
  Al  Al9  1  0.89375683  0.20007704  0.14516667  1
  Al  Al10  1  0.44956243  0.08688994  0.88369464  1
  Al  Al11  1  0.56261523  0.19235061  0.64201568  1
  Al  Al12  1  0.10695418  0.43355639  0.31753465  1
  Al  Al13  1  0.22994311  0.52801285  0.07085697  1
  Al  Al14  1  0.77455701  0.43454413  0.81602071  1
  Al  Al15  1  0.89035969  0.54691434  0.56594847  1
  Al  Al16  1  0.44426753  0.43106000  0.32035204  1
  Al  Al17  1  0.56288713  0.53296458  0.06900916  1
  Al  Al18  1  0.10700631  0.43617108  0.82016137  1
  Al  Al19  1  0.21500522  0.54315448  0.56775321  1
  Al  Al20  1  0.77478576  0.43421989  0.32255722  1
  Al  Al21  1  0.88025380  0.54409649  0.06535992  1
  Al  Al22  1  0.44034552  0.43360667  0.81820863  1
  Al  Al23  1  0.55677234  0.53077930  0.57062558  1
  Al  Al24  1  0.10823051  0.76296668  0.34367485  1
  Al  Al25  1  0.23576814  0.87423906  0.13819257  1
  Al  Al26  1  0.78526762  0.76601254  0.81588432  1
  Al  Al27  1  0.43989285  0.76677608  0.39857743  1
  Al  Al28  1  0.11047765  0.76674571  0.89892920  1
  Al  Al29  1  0.21109005  0.87161994  0.64338775  1
  Al  Al30  1  0.76491303  0.76539066  0.31338691  1
  Al  Al31  1  0.88172724  0.87598986  0.10434145  1
  Al  Al32  1  0.44608076  0.76801408  0.87825652  1
  Al  Al33  1  0.55555961  0.87475782  0.61194799  1
  B  B34  1  0.89385005  0.86866192  0.59899635  1
  B  B35  1  0.55587214  0.86941405  0.09560457  1
  N  N36  1  0.22684693  0.19869462  0.32616343  1
  N  N37  1  0.11041109  0.09597110  0.07656729  1
  N  N38  1  0.89074773  0.19883494  0.82498035  1
  N  N39  1  0.79146964  0.06391035  0.57829969  1
  N  N40  1  0.55940730  0.19677720  0.33083740  1
  N  N41  1  0.46140348  0.06345269  0.07796437  1
  N  N42  1  0.22457992  0.20083794  0.83218198  1
  N  N43  1  0.11185336  0.09403961  0.57774174  1
  N  N44  1  0.89280448  0.19826350  0.33352722  1
  N  N45  1  0.77250622  0.10939731  0.08035967  1
  N  N46  1  0.55984628  0.19829798  0.82893855  1
  N  N47  1  0.43582668  0.10670501  0.58082719  1
  N  N48  1  0.22437362  0.53521042  0.38018251  1
  N  N49  1  0.10494288  0.43476816  0.12932861  1
  N  N50  1  0.88601229  0.54174526  0.87993525  1
  N  N51  1  0.77630118  0.43528141  0.62846288  1
  N  N52  1  0.55841656  0.53200206  0.38358857  1
  N  N53  1  0.44555140  0.42971996  0.13299720  1
  N  N54  1  0.22587153  0.53286132  0.88470350  1
  N  N55  1  0.10597488  0.43561836  0.63228680  1
  N  N56  1  0.88833882  0.54248362  0.38017278  1
  N  N57  1  0.77695890  0.43388233  0.13464853  1
  N  N58  1  0.55811549  0.53288313  0.88269470  1
  N  N59  1  0.43887443  0.43216250  0.63109923  1
  N  N60  1  0.22800105  0.87287414  0.32379253  1
  N  N61  1  0.12374359  0.75979814  0.09403357  1
  N  N62  1  0.88451613  0.86942895  0.89524986  1
  N  N63  1  0.79998625  0.77622963  0.62462336  1
  N  N64  1  0.56133119  0.86960441  0.38680790  1
  N  N65  1  0.45938498  0.77955480  0.07471122  1
  N  N66  1  0.21997365  0.87220587  0.83092517  1
  N  N67  1  0.07732753  0.78058895  0.58813547  1
  N  N68  1  0.88711451  0.87359561  0.30763432  1
  N  N69  1  0.73969641  0.77443753  0.12114715  1
  N  N70  1  0.55388967  0.87252386  0.81201791  1
  N  N71  1  0.43126374  0.76240090  0.58640664  1
