# generated using pymatgen
data_Al17BN18
_symmetry_space_group_name_H-M   'P 1'
_cell_length_a   9.33512342
_cell_length_b   9.33212085
_cell_length_c   10.00362182
_cell_angle_alpha   89.92525722
_cell_angle_beta   89.94054623
_cell_angle_gamma   60.03028985
_symmetry_Int_Tables_number   1
_chemical_formula_structural   Al17BN18
_chemical_formula_sum   'Al34 B2 N36'
_cell_volume   754.95380288
_cell_formula_units_Z   2
loop_
 _symmetry_equiv_pos_site_id
 _symmetry_equiv_pos_as_xyz
  1  'x, y, z'
loop_
 _atom_site_type_symbol
 _atom_site_label
 _atom_site_symmetry_multiplicity
 _atom_site_fract_x
 _atom_site_fract_y
 _atom_site_fract_z
 _atom_site_occupancy
  Al  Al0  1  0.11054319  0.09523860  0.30847003  1
  Al  Al1  1  0.23043019  0.19608795  0.06080398  1
  Al  Al2  1  0.78660510  0.08537814  0.80773041  1
  Al  Al3  1  0.89059195  0.20141991  0.56136827  1
  Al  Al4  1  0.44524703  0.09021256  0.35886156  1
  Al  Al5  1  0.55658376  0.19487210  0.12888444  1
  Al  Al6  1  0.11232325  0.09313700  0.81202505  1
  Al  Al7  1  0.21265543  0.21107630  0.56145214  1
  Al  Al8  1  0.78614168  0.08905455  0.32297614  1
  Al  Al9  1  0.88826853  0.20439857  0.06007121  1
  Al  Al10  1  0.44353769  0.09164770  0.80698732  1
  Al  Al11  1  0.56097741  0.20350487  0.61082333  1
  Al  Al12  1  0.11095613  0.42818041  0.30812023  1
  Al  Al13  1  0.22140474  0.54015907  0.05912399  1
  Al  Al14  1  0.77668956  0.42955470  0.81109163  1
  Al  Al15  1  0.89105262  0.54319876  0.55924128  1
  Al  Al16  1  0.43974332  0.43532097  0.31366399  1
  Al  Al17  1  0.55820101  0.54280220  0.06136508  1
  Al  Al18  1  0.11071599  0.42819640  0.81275327  1
  Al  Al19  1  0.21471496  0.54445248  0.56043679  1
  Al  Al20  1  0.77870401  0.42756134  0.31022197  1
  Al  Al21  1  0.88159794  0.54458646  0.06154958  1
  Al  Al22  1  0.44268180  0.43310984  0.81048230  1
  Al  Al23  1  0.55398706  0.54025078  0.55714277  1
  Al  Al24  1  0.10839875  0.76230719  0.31488754  1
  Al  Al25  1  0.22553769  0.87335091  0.06198392  1
  Al  Al26  1  0.78310591  0.76267579  0.80383608  1
  Al  Al27  1  0.44660899  0.76461278  0.31661961  1
  Al  Al28  1  0.10622241  0.76402970  0.80751532  1
  Al  Al29  1  0.21492683  0.87392995  0.55857088  1
  Al  Al30  1  0.77479674  0.76477697  0.32376291  1
  Al  Al31  1  0.88127475  0.87432171  0.06293563  1
  Al  Al32  1  0.44348576  0.75999079  0.80664057  1
  Al  Al33  1  0.56132031  0.86747475  0.58431804  1
  B  B34  1  0.89288973  0.86829631  0.55695588  1
  B  B35  1  0.55416464  0.87452437  0.10796046  1
  N  N36  1  0.21611588  0.20873597  0.37057611  1
  N  N37  1  0.11066105  0.09472821  0.11895176  1
  N  N38  1  0.88861291  0.20497292  0.86892927  1
  N  N39  1  0.79693992  0.06579394  0.61034167  1
  N  N40  1  0.55512427  0.20595031  0.33783090  1
  N  N41  1  0.45910156  0.05967178  0.11432160  1
  N  N42  1  0.22427103  0.20446357  0.86997296  1
  N  N43  1  0.11039491  0.09419126  0.62205402  1
  N  N44  1  0.89071186  0.20709843  0.37213482  1
  N  N45  1  0.78600739  0.08936123  0.12778890  1
  N  N46  1  0.55873320  0.20457641  0.82243872  1
  N  N47  1  0.43711851  0.10000078  0.60031036  1
  N  N48  1  0.21946554  0.53985963  0.37077471  1
  N  N49  1  0.11181168  0.42622843  0.11757691  1
  N  N50  1  0.88770693  0.54170837  0.87080210  1
  N  N51  1  0.77676749  0.42956779  0.61936028  1
  N  N52  1  0.55626775  0.54008244  0.36711751  1
  N  N53  1  0.44263600  0.43150051  0.11956665  1
  N  N54  1  0.22088033  0.54163362  0.86839554  1
  N  N55  1  0.10943391  0.42911313  0.62247910  1
  N  N56  1  0.88993989  0.53858763  0.36841610  1
  N  N57  1  0.77879195  0.42632298  0.12009073  1
  N  N58  1  0.55515275  0.54044723  0.87221313  1
  N  N59  1  0.43891639  0.43623981  0.61571281  1
  N  N60  1  0.22153511  0.87340110  0.36747596  1
  N  N61  1  0.10851223  0.76169862  0.12330596  1
  N  N62  1  0.88982195  0.87039085  0.87577296  1
  N  N63  1  0.80007243  0.77006959  0.61072163  1
  N  N64  1  0.55883978  0.86543699  0.38693302  1
  N  N65  1  0.45976063  0.77552070  0.12029313  1
  N  N66  1  0.22234856  0.87011458  0.87104199  1
  N  N67  1  0.08636386  0.77410975  0.61303292  1
  N  N68  1  0.89123424  0.87031169  0.39061601  1
  N  N69  1  0.74818605  0.77677161  0.12544855  1
  N  N70  1  0.55924753  0.86854407  0.82182430  1
  N  N71  1  0.43607366  0.75780963  0.61606773  1
