# generated using pymatgen
data_Al17BN18
_symmetry_space_group_name_H-M   'P 1'
_cell_length_a   9.29830258
_cell_length_b   9.30053450
_cell_length_c   9.94035425
_cell_angle_alpha   90.03208758
_cell_angle_beta   89.99999432
_cell_angle_gamma   60.00794472
_symmetry_Int_Tables_number   1
_chemical_formula_structural   Al17BN18
_chemical_formula_sum   'Al34 B2 N36'
_cell_volume   744.52407875
_cell_formula_units_Z   2
loop_
 _symmetry_equiv_pos_site_id
 _symmetry_equiv_pos_as_xyz
  1  'x, y, z'
loop_
 _atom_site_type_symbol
 _atom_site_label
 _atom_site_symmetry_multiplicity
 _atom_site_fract_x
 _atom_site_fract_y
 _atom_site_fract_z
 _atom_site_occupancy
  Al  Al0  1  0.11109875  0.09413442  0.40743077  1
  Al  Al1  1  0.22549589  0.20042150  0.15733750  1
  Al  Al2  1  0.77893018  0.09174923  0.90036201  1
  Al  Al3  1  0.89074917  0.20042207  0.65733756  1
  Al  Al4  1  0.44598774  0.09174956  0.40036198  1
  Al  Al5  1  0.55886169  0.19944770  0.15706335  1
  Al  Al6  1  0.11143457  0.09413425  0.90743083  1
  Al  Al7  1  0.22436015  0.20433205  0.65726853  1
  Al  Al8  1  0.78047014  0.08883277  0.41171019  1
  Al  Al9  1  0.88797498  0.20433178  0.15726851  1
  Al  Al10  1  0.44736451  0.08883268  0.91171024  1
  Al  Al11  1  0.55835666  0.19944789  0.65706334  1
  Al  Al12  1  0.11073916  0.42780544  0.40711986  1
  Al  Al13  1  0.22091389  0.54062640  0.15773889  1
  Al  Al14  1  0.77812286  0.42780526  0.90711993  1
  Al  Al15  1  0.88987654  0.54415392  0.65744705  1
  Al  Al16  1  0.44488961  0.42768823  0.40715861  1
  Al  Al17  1  0.55711884  0.54233184  0.15724662  1
  Al  Al18  1  0.11137526  0.42774491  0.90793186  1
  Al  Al19  1  0.21721577  0.54233237  0.65724652  1
  Al  Al20  1  0.77754684  0.42774501  0.40793194  1
  Al  Al21  1  0.88263642  0.54415328  0.15744723  1
  Al  Al22  1  0.44408838  0.42768799  0.90715864  1
  Al  Al23  1  0.55512653  0.54062594  0.65773904  1
  Al  Al24  1  0.10543023  0.76407147  0.41122181  1
  Al  Al25  1  0.22436485  0.87294620  0.15697680  1
  Al  Al26  1  0.77388639  0.76504981  0.90501612  1
  Al  Al27  1  0.44588156  0.76227383  0.40046228  1
  Al  Al28  1  0.10851066  0.76227389  0.90046209  1
  Al  Al29  1  0.21935521  0.87294700  0.65697677  1
  Al  Al30  1  0.77772967  0.76504986  0.40501614  1
  Al  Al31  1  0.88333058  0.87363072  0.15559897  1
  Al  Al32  1  0.44716463  0.76407081  0.91122171  1
  Al  Al33  1  0.55970471  0.87363107  0.65559895  1
  B  B34  1  0.88806034  0.87232511  0.65991138  1
  B  B35  1  0.55628126  0.87232463  0.15991140  1
  N  N36  1  0.22162156  0.20560753  0.34738026  1
  N  N37  1  0.11024553  0.09433872  0.09818855  1
  N  N38  1  0.88943846  0.20560725  0.84738040  1
  N  N39  1  0.79025131  0.06921605  0.60586344  1
  N  N40  1  0.55844280  0.20446656  0.34882920  1
  N  N41  1  0.45719956  0.06921553  0.10586339  1
  N  N42  1  0.22474373  0.20431477  0.85008369  1
  N  N43  1  0.11208243  0.09433929  0.59818850  1
  N  N44  1  0.88760894  0.20431478  0.35008377  1
  N  N45  1  0.77880762  0.09273395  0.09245955  1
  N  N46  1  0.55375790  0.20446637  0.84882920  1
  N  N47  1  0.44512500  0.09273403  0.59245938  1
  N  N48  1  0.22106664  0.54119283  0.35008219  1
  N  N49  1  0.11040565  0.42771225  0.09953117  1
  N  N50  1  0.88846032  0.54078985  0.84934773  1
  N  N51  1  0.77854877  0.42771254  0.59953121  1
  N  N52  1  0.55603877  0.53834644  0.34749093  1
  N  N53  1  0.44463966  0.42723766  0.09913414  1
  N  N54  1  0.22228135  0.53834662  0.84749075  1
  N  N55  1  0.11148666  0.42670290  0.59816187  1
  N  N56  1  0.88741690  0.54078980  0.34934783  1
  N  N57  1  0.77847740  0.42670251  0.09816189  1
  N  N58  1  0.55440758  0.54119211  0.85008236  1
  N  N59  1  0.44478898  0.42723774  0.59913411  1
  N  N60  1  0.22065343  0.87119675  0.34875590  1
  N  N61  1  0.10838415  0.76244883  0.09355738  1
  N  N62  1  0.88775856  0.87132237  0.82733161  1
  N  N63  1  0.78916678  0.77424379  0.60117302  1
  N  N64  1  0.55758529  0.87132241  0.32733173  1
  N  N65  1  0.45656714  0.77393358  0.10558395  1
  N  N66  1  0.22481626  0.87119664  0.84875587  1
  N  N67  1  0.08616555  0.77393418  0.60558396  1
  N  N68  1  0.88895909  0.87262725  0.34378476  1
  N  N69  1  0.75325592  0.77424332  0.10117309  1
  N  N70  1  0.55507979  0.87262715  0.84378476  1
  N  N71  1  0.44583338  0.76244880  0.59355762  1
