# generated using pymatgen
data_Al17BN18
_symmetry_space_group_name_H-M   'P 1'
_cell_length_a   9.33020198
_cell_length_b   9.31936430
_cell_length_c   10.23986598
_cell_angle_alpha   89.78912896
_cell_angle_beta   89.99997394
_cell_angle_gamma   59.96164673
_symmetry_Int_Tables_number   1
_chemical_formula_structural   Al17BN18
_chemical_formula_sum   'Al34 B2 N36'
_cell_volume   770.77983045
_cell_formula_units_Z   2
loop_
 _symmetry_equiv_pos_site_id
 _symmetry_equiv_pos_as_xyz
  1  'x, y, z'
loop_
 _atom_site_type_symbol
 _atom_site_label
 _atom_site_symmetry_multiplicity
 _atom_site_fract_x
 _atom_site_fract_y
 _atom_site_fract_z
 _atom_site_occupancy
  Al  Al0  1  0.11231342  0.09584898  0.39097749  1
  Al  Al1  1  0.23021519  0.19312582  0.13726170  1
  Al  Al2  1  0.77680671  0.09781917  0.89648199  1
  Al  Al3  1  0.89332600  0.19312583  0.63726176  1
  Al  Al4  1  0.44204097  0.09781910  0.39648178  1
  Al  Al5  1  0.56135924  0.19352894  0.14223336  1
  Al  Al6  1  0.10850410  0.09584892  0.89097760  1
  Al  Al7  1  0.22266239  0.20025608  0.64383087  1
  Al  Al8  1  0.78125033  0.08523343  0.38417139  1
  Al  Al9  1  0.89374882  0.20025607  0.14383101  1
  Al  Al10  1  0.45018343  0.08523316  0.88417132  1
  Al  Al11  1  0.56177918  0.19352873  0.64223366  1
  Al  Al12  1  0.10675803  0.43472521  0.31580765  1
  Al  Al13  1  0.22691800  0.53154720  0.07096316  1
  Al  Al14  1  0.77518214  0.43472543  0.81580760  1
  Al  Al15  1  0.89137258  0.54548041  0.56470908  1
  Al  Al16  1  0.44421573  0.42884653  0.33257446  1
  Al  Al17  1  0.56231817  0.53546139  0.07025480  1
  Al  Al18  1  0.10657411  0.43494941  0.82076557  1
  Al  Al19  1  0.21888756  0.53546075  0.57025500  1
  Al  Al20  1  0.77514179  0.43494992  0.32076562  1
  Al  Al21  1  0.87981265  0.54548096  0.06470927  1
  Al  Al22  1  0.44360387  0.42884657  0.83257492  1
  Al  Al23  1  0.55820068  0.53154810  0.57096360  1
  Al  Al24  1  0.10259260  0.76926770  0.37728514  1
  Al  Al25  1  0.23238841  0.87219553  0.14151307  1
  Al  Al26  1  0.78514455  0.76585205  0.81422486  1
  Al  Al27  1  0.43934222  0.76784775  0.39709415  1
  Al  Al28  1  0.10947641  0.76784760  0.89709383  1
  Al  Al29  1  0.21208242  0.87219626  0.64151280  1
  Al  Al30  1  0.76567004  0.76585308  0.31422476  1
  Al  Al31  1  0.88591049  0.87495385  0.11015029  1
  Al  Al32  1  0.44480547  0.76926871  0.87728480  1
  Al  Al33  1  0.55580389  0.87495410  0.61015009  1
  B  B34  1  0.89078428  0.87017394  0.59656581  1
  B  B35  1  0.55570852  0.87017449  0.09656580  1
  N  N36  1  0.22651740  0.19984233  0.32553522  1
  N  N37  1  0.11115467  0.09406492  0.07755253  1
  N  N38  1  0.89030703  0.19984256  0.82553525  1
  N  N39  1  0.79159185  0.06296009  0.57834764  1
  N  N40  1  0.55894455  0.19711152  0.33037884  1
  N  N41  1  0.46211477  0.06296050  0.07834761  1
  N  N42  1  0.22494292  0.20005131  0.83345901  1
  N  N43  1  0.11144694  0.09406537  0.57755236  1
  N  N44  1  0.89167252  0.20005180  0.33345905  1
  N  N45  1  0.77445616  0.10627254  0.08121163  1
  N  N46  1  0.56061108  0.19711159  0.83037910  1
  N  N47  1  0.43593829  0.10627268  0.58121152  1
  N  N48  1  0.22232325  0.53540965  0.38187229  1
  N  N49  1  0.10447187  0.43457422  0.12750740  1
  N  N50  1  0.88544563  0.54286120  0.87874080  1
  N  N51  1  0.77761966  0.43457424  0.62750739  1
  N  N52  1  0.55896694  0.53447437  0.38132606  1
  N  N53  1  0.44620143  0.42689486  0.12323540  1
  N  N54  1  0.22322501  0.53447397  0.88132578  1
  N  N55  1  0.10547481  0.43343465  0.63267486  1
  N  N56  1  0.88835908  0.54286167  0.37874066  1
  N  N57  1  0.77775645  0.43343480  0.13267500  1
  N  N58  1  0.55893304  0.53541051  0.88187226  1
  N  N59  1  0.44357028  0.42689480  0.62323587  1
  N  N60  1  0.22462362  0.87272931  0.32797566  1
  N  N61  1  0.12261471  0.76207378  0.08591108  1
  N  N62  1  0.88509360  0.87048638  0.88669982  1
  N  N63  1  0.80099692  0.77530667  0.62153080  1
  N  N64  1  0.56108691  0.87048637  0.38669990  1
  N  N65  1  0.45814309  0.78083221  0.07647822  1
  N  N66  1  0.21931332  0.87272964  0.82797538  1
  N  N67  1  0.07769164  0.78083184  0.57647821  1
  N  N68  1  0.89011771  0.87237178  0.31097906  1
  N  N69  1  0.74036299  0.77530732  0.12153083  1
  N  N70  1  0.55417825  0.87237153  0.81097908  1
  N  N71  1  0.43197806  0.76207467  0.58591148  1
