# generated using pymatgen
data_Al17BN18
_symmetry_space_group_name_H-M   'P 1'
_cell_length_a   9.33795412
_cell_length_b   9.31217186
_cell_length_c   10.12495684
_cell_angle_alpha   89.70588176
_cell_angle_beta   90.03994347
_cell_angle_gamma   59.99590186
_symmetry_Int_Tables_number   1
_chemical_formula_structural   Al17BN18
_chemical_formula_sum   'Al34 B2 N36'
_cell_volume   762.42966779
_cell_formula_units_Z   2
loop_
 _symmetry_equiv_pos_site_id
 _symmetry_equiv_pos_as_xyz
  1  'x, y, z'
loop_
 _atom_site_type_symbol
 _atom_site_label
 _atom_site_symmetry_multiplicity
 _atom_site_fract_x
 _atom_site_fract_y
 _atom_site_fract_z
 _atom_site_occupancy
  Al  Al0  1  0.11145167  0.09467463  0.31058647  1
  Al  Al1  1  0.21894215  0.20469004  0.06171898  1
  Al  Al2  1  0.77799874  0.09220750  0.87851910  1
  Al  Al3  1  0.88839215  0.19708604  0.56060608  1
  Al  Al4  1  0.45075652  0.09362300  0.38756808  1
  Al  Al5  1  0.55079434  0.19705563  0.12319883  1
  Al  Al6  1  0.11177940  0.09568773  0.80836361  1
  Al  Al7  1  0.21336938  0.21179721  0.56116365  1
  Al  Al8  1  0.78300162  0.09043564  0.31396463  1
  Al  Al9  1  0.89230712  0.21355531  0.06090421  1
  Al  Al10  1  0.45297454  0.08056895  0.87428086  1
  Al  Al11  1  0.56679983  0.19043116  0.63711451  1
  Al  Al12  1  0.11021293  0.42982697  0.30917072  1
  Al  Al13  1  0.22332086  0.54023197  0.05464002  1
  Al  Al14  1  0.77665461  0.42991938  0.80725414  1
  Al  Al15  1  0.89099601  0.54521896  0.55801226  1
  Al  Al16  1  0.43992803  0.43304687  0.30775767  1
  Al  Al17  1  0.55698843  0.54436955  0.06008088  1
  Al  Al18  1  0.11123287  0.42774133  0.80983169  1
  Al  Al19  1  0.21762551  0.54220566  0.56185776  1
  Al  Al20  1  0.77742702  0.42873591  0.31110500  1
  Al  Al21  1  0.87940910  0.54594395  0.05736980  1
  Al  Al22  1  0.44191123  0.43453947  0.81178031  1
  Al  Al23  1  0.55357400  0.53691326  0.55585262  1
  Al  Al24  1  0.11621046  0.75820884  0.30383363  1
  Al  Al25  1  0.22862926  0.87542271  0.05811221  1
  Al  Al26  1  0.78412132  0.76274948  0.81026923  1
  Al  Al27  1  0.44597681  0.76584104  0.31728736  1
  Al  Al28  1  0.10500160  0.76656390  0.81606280  1
  Al  Al29  1  0.21321310  0.87444292  0.55854013  1
  Al  Al30  1  0.76952270  0.76309555  0.31183641  1
  Al  Al31  1  0.88860569  0.86716429  0.08914997  1
  Al  Al32  1  0.44215345  0.75974097  0.80218464  1
  Al  Al33  1  0.55949179  0.87198123  0.59325989  1
  B  B34  1  0.89081827  0.87379366  0.60400948  1
  B  B35  1  0.55432226  0.86930816  0.09824557  1
  N  N36  1  0.21675649  0.20889851  0.36882252  1
  N  N37  1  0.11092316  0.09502551  0.12259320  1
  N  N38  1  0.89203150  0.20955132  0.87149329  1
  N  N39  1  0.79765287  0.05850178  0.60266507  1
  N  N40  1  0.55371556  0.20008956  0.31397954  1
  N  N41  1  0.46137086  0.05793672  0.07188202  1
  N  N42  1  0.21976190  0.20758208  0.87229720  1
  N  N43  1  0.10967021  0.09528957  0.62053784  1
  N  N44  1  0.88805157  0.20516622  0.36943932  1
  N  N45  1  0.77587444  0.10202341  0.09148498  1
  N  N46  1  0.55708682  0.20166671  0.83030222  1
  N  N47  1  0.44207843  0.10364559  0.57617344  1
  N  N48  1  0.22206282  0.53914317  0.37271094  1
  N  N49  1  0.10842434  0.43225610  0.11879342  1
  N  N50  1  0.88825410  0.53982136  0.86907815  1
  N  N51  1  0.77713795  0.42860758  0.61740231  1
  N  N52  1  0.55463151  0.53806677  0.36671594  1
  N  N53  1  0.44177138  0.43325365  0.11543039  1
  N  N54  1  0.22130164  0.54022447  0.86701602  1
  N  N55  1  0.10916688  0.42958579  0.62194883  1
  N  N56  1  0.88868719  0.53974100  0.36937028  1
  N  N57  1  0.77703578  0.43073894  0.12242150  1
  N  N58  1  0.55613334  0.54099056  0.87205288  1
  N  N59  1  0.44371406  0.42902908  0.62081832  1
  N  N60  1  0.22083295  0.87229453  0.36957745  1
  N  N61  1  0.12606516  0.75679970  0.11540488  1
  N  N62  1  0.89253601  0.86331570  0.88887513  1
  N  N63  1  0.80311884  0.77208680  0.61633162  1
  N  N64  1  0.56069589  0.86359710  0.38453720  1
  N  N65  1  0.45705512  0.77764305  0.11931122  1
  N  N66  1  0.22363564  0.87353418  0.86943100  1
  N  N67  1  0.08362258  0.77588991  0.62051196  1
  N  N68  1  0.89077285  0.86715273  0.30990034  1
  N  N69  1  0.74029830  0.77344813  0.11461132  1
  N  N70  1  0.55739447  0.87143924  0.80829192  1
  N  N71  1  0.43540857  0.75585308  0.61461783  1
