# generated using pymatgen
data_Al17BN18
_symmetry_space_group_name_H-M   'P 1'
_cell_length_a   9.31160668
_cell_length_b   9.30233451
_cell_length_c   10.09731057
_cell_angle_alpha   89.62943452
_cell_angle_beta   90.00000631
_cell_angle_gamma   59.96702441
_symmetry_Int_Tables_number   1
_chemical_formula_structural   Al17BN18
_chemical_formula_sum   'Al34 B2 N36'
_cell_volume   757.17522901
_cell_formula_units_Z   2
loop_
 _symmetry_equiv_pos_site_id
 _symmetry_equiv_pos_as_xyz
  1  'x, y, z'
loop_
 _atom_site_type_symbol
 _atom_site_label
 _atom_site_symmetry_multiplicity
 _atom_site_fract_x
 _atom_site_fract_y
 _atom_site_fract_z
 _atom_site_occupancy
  Al  Al0  1  0.11306506  0.09451351  0.39315068  1
  Al  Al1  1  0.22747504  0.19860819  0.14056862  1
  Al  Al2  1  0.77638834  0.09761726  0.89883603  1
  Al  Al3  1  0.89058213  0.19860849  0.64056864  1
  Al  Al4  1  0.44266062  0.09761776  0.39883590  1
  Al  Al5  1  0.55778917  0.19908907  0.14418820  1
  Al  Al6  1  0.10908802  0.09451267  0.89315067  1
  Al  Al7  1  0.22045424  0.20722686  0.64618570  1
  Al  Al8  1  0.78122915  0.08676139  0.38534177  1
  Al  Al9  1  0.88898431  0.20722689  0.14618564  1
  Al  Al10  1  0.44867627  0.08676134  0.88534197  1
  Al  Al11  1  0.55978803  0.19908947  0.64418804  1
  Al  Al12  1  0.11110365  0.42743165  0.39050165  1
  Al  Al13  1  0.22552170  0.53744529  0.14602386  1
  Al  Al14  1  0.77813244  0.42743146  0.89050175  1
  Al  Al15  1  0.89433192  0.53702395  0.63825653  1
  Al  Al16  1  0.44652327  0.42675252  0.39280855  1
  Al  Al17  1  0.55762349  0.54271738  0.13989761  1
  Al  Al18  1  0.10998172  0.42996802  0.89211889  1
  Al  Al19  1  0.21632679  0.54271687  0.63989763  1
  Al  Al20  1  0.77671700  0.42996889  0.39211894  1
  Al  Al21  1  0.88531238  0.53702337  0.13825629  1
  Al  Al22  1  0.44339172  0.42675203  0.89280845  1
  Al  Al23  1  0.55370071  0.53744595  0.64602384  1
  Al  Al24  1  0.10538959  0.76431346  0.38397606  1
  Al  Al25  1  0.22948229  0.87449658  0.14436878  1
  Al  Al26  1  0.78134626  0.77041274  0.82194643  1
  Al  Al27  1  0.44332623  0.75842814  0.39943174  1
  Al  Al28  1  0.11491331  0.75842688  0.89943159  1
  Al  Al29  1  0.21268717  0.87449674  0.64436848  1
  Al  Al30  1  0.76490668  0.77041219  0.32194572  1
  Al  Al31  1  0.88528432  0.87454581  0.10892733  1
  Al  Al32  1  0.44696318  0.76431309  0.88397598  1
  Al  Al33  1  0.55683630  0.87454717  0.60892747  1
  B  B34  1  0.89100080  0.87018013  0.59905965  1
  B  B35  1  0.55548532  0.87018015  0.09905944  1
  N  N36  1  0.22461838  0.20455613  0.32929286  1
  N  N37  1  0.10978066  0.09556080  0.08247788  1
  N  N38  1  0.88749200  0.20455589  0.82929289  1
  N  N39  1  0.79298345  0.06331560  0.58225515  1
  N  N40  1  0.55547811  0.20419890  0.33306023  1
  N  N41  1  0.46036709  0.06331560  0.08225535  1
  N  N42  1  0.22138640  0.20625088  0.83577346  1
  N  N43  1  0.11132402  0.09556106  0.58247785  1
  N  N44  1  0.88902864  0.20625154  0.33577335  1
  N  N45  1  0.77335196  0.10678923  0.08636122  1
  N  N46  1  0.55698984  0.20419849  0.83306009  1
  N  N47  1  0.43652443  0.10679021  0.58636119  1
  N  N48  1  0.22372102  0.53825037  0.33512400  1
  N  N49  1  0.11205524  0.42859665  0.08187507  1
  N  N50  1  0.88977294  0.53601537  0.82906361  1
  N  N51  1  0.77601552  0.42859715  0.58187510  1
  N  N52  1  0.55498137  0.54051925  0.32921320  1
  N  N53  1  0.44535805  0.42550117  0.08279879  1
  N  N54  1  0.22116702  0.54051825  0.82921315  1
  N  N55  1  0.11159144  0.42685997  0.57919758  1
  N  N56  1  0.89087914  0.53601523  0.32906337  1
  N  N57  1  0.77821585  0.42685998  0.07919768  1
  N  N58  1  0.55469609  0.53825008  0.83512403  1
  N  N59  1  0.44580830  0.42550157  0.58279887  1
  N  N60  1  0.22434568  0.87258939  0.33327444  1
  N  N61  1  0.12626085  0.75613371  0.08774505  1
  N  N62  1  0.88683112  0.86891480  0.89555573  1
  N  N63  1  0.80164208  0.77692834  0.62431376  1
  N  N64  1  0.56092056  0.86891564  0.39555570  1
  N  N65  1  0.45847864  0.77686551  0.08109446  1
  N  N66  1  0.21973148  0.87258883  0.83327416  1
  N  N67  1  0.08132216  0.77686533  0.58109455  1
  N  N68  1  0.89134864  0.87324662  0.31627125  1
  N  N69  1  0.73809603  0.77692787  0.12431332  1
  N  N70  1  0.55207031  0.87324700  0.81627142  1
  N  N71  1  0.43427202  0.75613463  0.58774520  1
