# generated using pymatgen
data_Al17BN18
_symmetry_space_group_name_H-M   'P 1'
_cell_length_a   9.31714339
_cell_length_b   9.31026980
_cell_length_c   10.05974388
_cell_angle_alpha   89.75273182
_cell_angle_beta   90.00002515
_cell_angle_gamma   59.97557540
_symmetry_Int_Tables_number   1
_chemical_formula_structural   Al17BN18
_chemical_formula_sum   'Al34 B2 N36'
_cell_volume   755.52747892
_cell_formula_units_Z   2
loop_
 _symmetry_equiv_pos_site_id
 _symmetry_equiv_pos_as_xyz
  1  'x, y, z'
loop_
 _atom_site_type_symbol
 _atom_site_label
 _atom_site_symmetry_multiplicity
 _atom_site_fract_x
 _atom_site_fract_y
 _atom_site_fract_z
 _atom_site_occupancy
  Al  Al0  1  0.11280120  0.09447984  0.39740030  1
  Al  Al1  1  0.22755791  0.19861112  0.14499197  1
  Al  Al2  1  0.77705935  0.09739063  0.90181324  1
  Al  Al3  1  0.89049594  0.19861162  0.64499152  1
  Al  Al4  1  0.44221636  0.09739093  0.40181315  1
  Al  Al5  1  0.55793820  0.19896650  0.14812314  1
  Al  Al6  1  0.10938575  0.09447854  0.89740025  1
  Al  Al7  1  0.22043411  0.20716906  0.65013505  1
  Al  Al8  1  0.78041897  0.08790836  0.39032703  1
  Al  Al9  1  0.88906186  0.20716922  0.15013530  1
  Al  Al10  1  0.44834005  0.08790787  0.89032762  1
  Al  Al11  1  0.55976129  0.19896696  0.64812256  1
  Al  Al12  1  0.11147883  0.42695333  0.39549248  1
  Al  Al13  1  0.22515046  0.53771144  0.15001471  1
  Al  Al14  1  0.77823497  0.42695211  0.89549246  1
  Al  Al15  1  0.89294220  0.53983773  0.64315583  1
  Al  Al16  1  0.44603854  0.42688059  0.39709749  1
  Al  Al17  1  0.55778959  0.54278916  0.14457916  1
  Al  Al18  1  0.11097584  0.42949724  0.89702341  1
  Al  Al19  1  0.21608800  0.54278886  0.64457894  1
  Al  Al20  1  0.77619278  0.42949939  0.39702348  1
  Al  Al21  1  0.88388859  0.53983541  0.14315501  1
  Al  Al22  1  0.44374776  0.42687964  0.89709733  1
  Al  Al23  1  0.55380526  0.53771253  0.65001447  1
  Al  Al24  1  0.10586172  0.76421340  0.38927140  1
  Al  Al25  1  0.22952111  0.87429936  0.14831941  1
  Al  Al26  1  0.77866228  0.76735480  0.84497536  1
  Al  Al27  1  0.44279408  0.75888967  0.40246703  1
  Al  Al28  1  0.11498574  0.75888751  0.90246708  1
  Al  Al29  1  0.21284596  0.87429953  0.64831839  1
  Al  Al30  1  0.77064786  0.76735716  0.34496650  1
  Al  Al31  1  0.88514954  0.87465194  0.11790086  1
  Al  Al32  1  0.44659123  0.76421266  0.88927172  1
  Al  Al33  1  0.55686741  0.87465261  0.61790470  1
  B  B34  1  0.88945578  0.86927570  0.60377809  1
  B  B35  1  0.55793436  0.86927580  0.10377877  1
  N  N36  1  0.22360541  0.20512139  0.33408585  1
  N  N37  1  0.11007286  0.09527609  0.08707301  1
  N  N38  1  0.88793990  0.20512040  0.83408551  1
  N  N39  1  0.79258083  0.06335795  0.58679756  1
  N  N40  1  0.55519616  0.20452096  0.33755152  1
  N  N41  1  0.46072741  0.06335767  0.08679812  1
  N  N42  1  0.22167985  0.20615371  0.84030114  1
  N  N43  1  0.11131613  0.09527649  0.58707291  1
  N  N44  1  0.88883197  0.20615541  0.34030118  1
  N  N45  1  0.77407465  0.10550841  0.09033438  1
  N  N46  1  0.55694985  0.20452013  0.83755104  1
  N  N47  1  0.43708300  0.10550811  0.59033457  1
  N  N48  1  0.22311229  0.53851160  0.33977490  1
  N  N49  1  0.11173076  0.42858142  0.08710709  1
  N  N50  1  0.89000852  0.53616994  0.83475934  1
  N  N51  1  0.77635469  0.42858245  0.58710733  1
  N  N52  1  0.55478614  0.54007044  0.33422754  1
  N  N53  1  0.44545882  0.42568070  0.08750714  1
  N  N54  1  0.22181048  0.54006907  0.83422731  1
  N  N55  1  0.11122671  0.42685262  0.58466895  1
  N  N56  1  0.89048782  0.53617111  0.33475808  1
  N  N57  1  0.77858702  0.42685235  0.08466878  1
  N  N58  1  0.55504288  0.53851105  0.83977490  1
  N  N59  1  0.44552710  0.42568156  0.58750729  1
  N  N60  1  0.22337013  0.87254684  0.33771862  1
  N  N61  1  0.12464301  0.75669008  0.09171956  1
  N  N62  1  0.88928691  0.87115632  0.89025799  1
  N  N63  1  0.79926719  0.77551353  0.61682354  1
  N  N64  1  0.55622325  0.87115806  0.39025259  1
  N  N65  1  0.45910820  0.77653432  0.08605243  1
  N  N66  1  0.22074999  0.87254604  0.83771777  1
  N  N67  1  0.08102388  0.77653424  0.58605219  1
  N  N68  1  0.89107679  0.87333366  0.32108385  1
  N  N69  1  0.74188673  0.77551251  0.11682235  1
  N  N70  1  0.55225772  0.87333238  0.82108626  1
  N  N71  1  0.43533486  0.75669196  0.59171973  1
