# generated using pymatgen
data_Al17BN18
_symmetry_space_group_name_H-M   'P 1'
_cell_length_a   9.31599702
_cell_length_b   9.30961264
_cell_length_c   10.06833737
_cell_angle_alpha   89.72395501
_cell_angle_beta   90.00001972
_cell_angle_gamma   59.97731522
_symmetry_Int_Tables_number   1
_chemical_formula_structural   Al17BN18
_chemical_formula_sum   'Al34 B2 N36'
_cell_volume   756.03743338
_cell_formula_units_Z   2
loop_
 _symmetry_equiv_pos_site_id
 _symmetry_equiv_pos_as_xyz
  1  'x, y, z'
loop_
 _atom_site_type_symbol
 _atom_site_label
 _atom_site_symmetry_multiplicity
 _atom_site_fract_x
 _atom_site_fract_y
 _atom_site_fract_z
 _atom_site_occupancy
  Al  Al0  1  0.11281242  0.09448261  0.39746097  1
  Al  Al1  1  0.22761654  0.19853228  0.14504830  1
  Al  Al2  1  0.77686716  0.09751903  0.90228447  1
  Al  Al3  1  0.89051618  0.19853279  0.64504793  1
  Al  Al4  1  0.44228019  0.09751931  0.40228433  1
  Al  Al5  1  0.55796679  0.19907445  0.14831577  1
  Al  Al6  1  0.10937175  0.09448135  0.89746091  1
  Al  Al7  1  0.22043771  0.20714863  0.65037609  1
  Al  Al8  1  0.78066874  0.08741191  0.39026962  1
  Al  Al9  1  0.88907872  0.20714883  0.15037628  1
  Al  Al10  1  0.44858653  0.08741155  0.89027020  1
  Al  Al11  1  0.55962466  0.19907495  0.64831526  1
  Al  Al12  1  0.11118976  0.42722899  0.39533769  1
  Al  Al13  1  0.22531108  0.53765316  0.15022271  1
  Al  Al14  1  0.77824846  0.42722803  0.89533776  1
  Al  Al15  1  0.89357097  0.53824798  0.64293030  1
  Al  Al16  1  0.44611986  0.42686067  0.39716624  1
  Al  Al17  1  0.55781043  0.54269579  0.14459098  1
  Al  Al18  1  0.11061955  0.42968249  0.89690641  1
  Al  Al19  1  0.21616069  0.54269543  0.64459082  1
  Al  Al20  1  0.77636392  0.42968446  0.39690641  1
  Al  Al21  1  0.88484937  0.53824640  0.14292941  1
  Al  Al22  1  0.44368647  0.42685973  0.89716610  1
  Al  Al23  1  0.55370295  0.53765421  0.65022253  1
  Al  Al24  1  0.10548062  0.76426241  0.38916253  1
  Al  Al25  1  0.22954806  0.87432918  0.14853608  1
  Al  Al26  1  0.78041713  0.76901139  0.83320521  1
  Al  Al27  1  0.44289814  0.75874074  0.40292295  1
  Al  Al28  1  0.11503043  0.75873867  0.90292299  1
  Al  Al29  1  0.21278920  0.87432936  0.64853521  1
  Al  Al30  1  0.76723717  0.76901238  0.33319986  1
  Al  Al31  1  0.88547976  0.87475529  0.11604852  1
  Al  Al32  1  0.44692339  0.76426163  0.88916288  1
  Al  Al33  1  0.55643325  0.87475612  0.61605138  1
  B  B34  1  0.88986934  0.86963662  0.60412448  1
  B  B35  1  0.55716033  0.86963653  0.10412458  1
  N  N36  1  0.22385634  0.20496093  0.33403941  1
  N  N37  1  0.11006082  0.09529913  0.08710359  1
  N  N38  1  0.88784938  0.20496015  0.83403911  1
  N  N39  1  0.79263217  0.06317677  0.58695789  1
  N  N40  1  0.55525715  0.20443471  0.33760891  1
  N  N41  1  0.46085713  0.06317660  0.08695836  1
  N  N42  1  0.22167506  0.20618059  0.84040675  1
  N  N43  1  0.11130518  0.09529952  0.58710351  1
  N  N44  1  0.88880993  0.20618209  0.34040680  1
  N  N45  1  0.77384722  0.10602534  0.09052074  1
  N  N46  1  0.55697509  0.20443389  0.83760846  1
  N  N47  1  0.43679337  0.10602529  0.59052084  1
  N  N48  1  0.22325153  0.53846751  0.33982638  1
  N  N49  1  0.11206165  0.42842568  0.08693466  1
  N  N50  1  0.89000264  0.53604632  0.83452602  1
  N  N51  1  0.77617957  0.42842672  0.58693484  1
  N  N52  1  0.55482168  0.54020071  0.33413747  1
  N  N53  1  0.44546761  0.42563152  0.08750047  1
  N  N54  1  0.22164478  0.54019933  0.83413726  1
  N  N55  1  0.11137007  0.42679378  0.58440696  1
  N  N56  1  0.89061758  0.53604716  0.33452492  1
  N  N57  1  0.77850264  0.42679361  0.08440689  1
  N  N58  1  0.55494785  0.53846698  0.83982636  1
  N  N59  1  0.44556759  0.42563233  0.58750060  1
  N  N60  1  0.22360608  0.87252062  0.33782325  1
  N  N61  1  0.12536083  0.75642585  0.09189801  1
  N  N62  1  0.88838318  0.87038339  0.89417356  1
  N  N63  1  0.79990921  0.77619290  0.62449959  1
  N  N64  1  0.55790030  0.87038480  0.39416978  1
  N  N65  1  0.45920214  0.77661338  0.08616764  1
  N  N66  1  0.22054033  0.87251978  0.83782249  1
  N  N67  1  0.08085082  0.77661333  0.58616749  1
  N  N68  1  0.89123690  0.87340710  0.32126839  1
  N  N69  1  0.74056518  0.77619206  0.12449771  1
  N  N70  1  0.55202315  0.87340641  0.82127015  1
  N  N71  1  0.43488100  0.75642754  0.59189812  1
