# generated using pymatgen
data_Al17BN18
_symmetry_space_group_name_H-M   'P 1'
_cell_length_a   9.29830356
_cell_length_b   9.30053561
_cell_length_c   9.94035449
_cell_angle_alpha   90.03204466
_cell_angle_beta   89.99999475
_cell_angle_gamma   60.00794505
_symmetry_Int_Tables_number   1
_chemical_formula_structural   Al17BN18
_chemical_formula_sum   'Al34 B2 N36'
_cell_volume   744.52426665
_cell_formula_units_Z   2
loop_
 _symmetry_equiv_pos_site_id
 _symmetry_equiv_pos_as_xyz
  1  'x, y, z'
loop_
 _atom_site_type_symbol
 _atom_site_label
 _atom_site_symmetry_multiplicity
 _atom_site_fract_x
 _atom_site_fract_y
 _atom_site_fract_z
 _atom_site_occupancy
  Al  Al0  1  0.11109496  0.09414193  0.39967610  1
  Al  Al1  1  0.22549193  0.20042920  0.14958295  1
  Al  Al2  1  0.77892648  0.09175663  0.89260803  1
  Al  Al3  1  0.89074544  0.20042976  0.64958303  1
  Al  Al4  1  0.44598404  0.09175698  0.39260800  1
  Al  Al5  1  0.55885811  0.19945536  0.14930932  1
  Al  Al6  1  0.11143086  0.09414176  0.89967618  1
  Al  Al7  1  0.22435642  0.20433957  0.64951401  1
  Al  Al8  1  0.78046623  0.08884050  0.40395769  1
  Al  Al9  1  0.88797117  0.20433933  0.14951396  1
  Al  Al10  1  0.44736071  0.08884039  0.90395773  1
  Al  Al11  1  0.55835259  0.19945555  0.64930931  1
  Al  Al12  1  0.11073538  0.42781296  0.39936506  1
  Al  Al13  1  0.22091006  0.54063405  0.14998452  1
  Al  Al14  1  0.77811912  0.42781281  0.89936512  1
  Al  Al15  1  0.88987274  0.54416148  0.64969250  1
  Al  Al16  1  0.44488587  0.42769578  0.39940399  1
  Al  Al17  1  0.55711513  0.54233919  0.14949216  1
  Al  Al18  1  0.11137151  0.42775245  0.90017713  1
  Al  Al19  1  0.21721213  0.54233970  0.64949209  1
  Al  Al20  1  0.77754303  0.42775255  0.40017719  1
  Al  Al21  1  0.88263266  0.54416085  0.14969266  1
  Al  Al22  1  0.44408458  0.42769555  0.89940403  1
  Al  Al23  1  0.55512270  0.54063358  0.64998469  1
  Al  Al24  1  0.10542659  0.76407895  0.40346945  1
  Al  Al25  1  0.22436081  0.87295372  0.14922287  1
  Al  Al26  1  0.77388288  0.76505731  0.89726293  1
  Al  Al27  1  0.44587788  0.76228135  0.39270848  1
  Al  Al28  1  0.10850680  0.76228143  0.89270830  1
  Al  Al29  1  0.21935172  0.87295451  0.64922287  1
  Al  Al30  1  0.77772570  0.76505735  0.39726294  1
  Al  Al31  1  0.88332689  0.87363836  0.14784684  1
  Al  Al32  1  0.44716077  0.76407832  0.90346934  1
  Al  Al33  1  0.55970077  0.87363870  0.64784682  1
  B  B34  1  0.88805644  0.87233259  0.65215844  1
  B  B35  1  0.55627770  0.87233212  0.15215843  1
  N  N36  1  0.22161793  0.20561495  0.33962591  1
  N  N37  1  0.11024172  0.09434621  0.09043429  1
  N  N38  1  0.88943466  0.20561468  0.83962608  1
  N  N39  1  0.79024729  0.06922383  0.59811050  1
  N  N40  1  0.55843921  0.20447389  0.34107548  1
  N  N41  1  0.45719583  0.06922333  0.09811038  1
  N  N42  1  0.22474024  0.20432220  0.84232970  1
  N  N43  1  0.11207875  0.09434675  0.59043426  1
  N  N44  1  0.88760501  0.20432219  0.34232981  1
  N  N45  1  0.77880407  0.09274114  0.08470590  1
  N  N46  1  0.55375417  0.20447371  0.84107549  1
  N  N47  1  0.44512136  0.09274122  0.58470575  1
  N  N48  1  0.22106269  0.54120069  0.34232835  1
  N  N49  1  0.11040182  0.42771994  0.09177687  1
  N  N50  1  0.88845646  0.54079766  0.84159354  1
  N  N51  1  0.77854491  0.42772020  0.59177692  1
  N  N52  1  0.55603493  0.53835416  0.33973663  1
  N  N53  1  0.44463587  0.42724516  0.09137990  1
  N  N54  1  0.22227748  0.53835433  0.83973649  1
  N  N55  1  0.11148285  0.42671042  0.59040745  1
  N  N56  1  0.88741296  0.54079762  0.34159366  1
  N  N57  1  0.77847366  0.42671005  0.09040743  1
  N  N58  1  0.55440368  0.54119995  0.84232849  1
  N  N59  1  0.44478526  0.42724525  0.59137990  1
  N  N60  1  0.22064967  0.87120412  0.34100233  1
  N  N61  1  0.10837996  0.76245663  0.08580383  1
  N  N62  1  0.88775470  0.87132988  0.81957792  1
  N  N63  1  0.78916258  0.77425147  0.59341995  1
  N  N64  1  0.55758166  0.87132989  0.31957797  1
  N  N65  1  0.45656318  0.77394110  0.09783104  1
  N  N66  1  0.22481261  0.87120402  0.84100232  1
  N  N67  1  0.08616195  0.77394170  0.59783113  1
  N  N68  1  0.88895522  0.87263490  0.33603239  1
  N  N69  1  0.75325245  0.77425102  0.09341996  1
  N  N70  1  0.55507600  0.87263481  0.83603238  1
  N  N71  1  0.44582977  0.76245657  0.58580406  1
