# generated using pymatgen
data_Al17BN18
_symmetry_space_group_name_H-M   'P 1'
_cell_length_a   9.32679080
_cell_length_b   9.30292527
_cell_length_c   10.17023804
_cell_angle_alpha   89.49362843
_cell_angle_beta   90.00002509
_cell_angle_gamma   59.91513527
_symmetry_Int_Tables_number   1
_chemical_formula_structural   Al17BN18
_chemical_formula_sum   'Al34 B2 N36'
_cell_volume   763.51722453
_cell_formula_units_Z   2
loop_
 _symmetry_equiv_pos_site_id
 _symmetry_equiv_pos_as_xyz
  1  'x, y, z'
loop_
 _atom_site_type_symbol
 _atom_site_label
 _atom_site_symmetry_multiplicity
 _atom_site_fract_x
 _atom_site_fract_y
 _atom_site_fract_z
 _atom_site_occupancy
  Al  Al0  1  0.10776591  0.09562186  0.31285809  1
  Al  Al1  1  0.22062280  0.20429467  0.06534385  1
  Al  Al2  1  0.77589935  0.09351186  0.88972784  1
  Al  Al3  1  0.89174797  0.20429420  0.56534419  1
  Al  Al4  1  0.44725694  0.09351089  0.38972777  1
  Al  Al5  1  0.56067418  0.19166706  0.13621558  1
  Al  Al6  1  0.11327854  0.09562232  0.81285812  1
  Al  Al7  1  0.21249334  0.21276580  0.56378894  1
  Al  Al8  1  0.78022429  0.08038593  0.37813489  1
  Al  Al9  1  0.89140622  0.21276582  0.06378969  1
  Al  Al10  1  0.45605858  0.08038595  0.87813608  1
  Al  Al11  1  0.56432492  0.19166721  0.63621586  1
  Al  Al12  1  0.10915954  0.43035004  0.31134503  1
  Al  Al13  1  0.22503862  0.53877666  0.05812992  1
  Al  Al14  1  0.77715689  0.43035094  0.81134521  1
  Al  Al15  1  0.89058707  0.54605289  0.55992688  1
  Al  Al16  1  0.44027508  0.43251969  0.31277095  1
  Al  Al17  1  0.55710926  0.54253814  0.06372023  1
  Al  Al18  1  0.11225984  0.42737909  0.81335366  1
  Al  Al19  1  0.21701954  0.54253734  0.56372005  1
  Al  Al20  1  0.77702761  0.42737992  0.31335380  1
  Al  Al21  1  0.88002564  0.54605324  0.05992704  1
  Al  Al22  1  0.44387177  0.43252117  0.81277079  1
  Al  Al23  1  0.55285139  0.53877745  0.55813024  1
  Al  Al24  1  0.11497675  0.75920230  0.30580465  1
  Al  Al25  1  0.22833255  0.87542742  0.06092390  1
  Al  Al26  1  0.78491802  0.76300329  0.81281461  1
  Al  Al27  1  0.44509970  0.76619910  0.31916768  1
  Al  Al28  1  0.10536799  0.76619898  0.81916730  1
  Al  Al29  1  0.21290618  0.87542715  0.56092438  1
  Al  Al30  1  0.76874705  0.76300403  0.31281488  1
  Al  Al31  1  0.88641825  0.87244894  0.09668927  1
  Al  Al32  1  0.44248887  0.75920411  0.80580499  1
  Al  Al33  1  0.55779938  0.87245028  0.59668960  1
  B  B34  1  0.89215373  0.86960262  0.60173840  1
  B  B35  1  0.55490962  0.86960305  0.10173898  1
  N  N36  1  0.21406569  0.20945480  0.37188909  1
  N  N37  1  0.11079904  0.09508868  0.12558866  1
  N  N38  1  0.89314626  0.20945586  0.87188973  1
  N  N39  1  0.79435152  0.05871330  0.57688161  1
  N  N40  1  0.55739556  0.19813811  0.32423371  1
  N  N41  1  0.46360094  0.05871366  0.07688204  1
  N  N42  1  0.22211105  0.20685876  0.87644229  1
  N  N43  1  0.11077786  0.09508871  0.62558864  1
  N  N44  1  0.88769743  0.20685952  0.37644245  1
  N  N45  1  0.77247737  0.10342884  0.07735760  1
  N  N46  1  0.56113342  0.19813930  0.82423403  1
  N  N47  1  0.44075940  0.10342971  0.57735738  1
  N  N48  1  0.22070015  0.53969775  0.37577648  1
  N  N49  1  0.10872174  0.43206979  0.12192913  1
  N  N50  1  0.88892272  0.54001738  0.87220696  1
  N  N51  1  0.77587481  0.43206947  0.62192939  1
  N  N52  1  0.55423236  0.53874400  0.37022848  1
  N  N53  1  0.44321885  0.43043174  0.12195322  1
  N  N54  1  0.22369040  0.53874403  0.87022821  1
  N  N55  1  0.10866086  0.43028772  0.62543476  1
  N  N56  1  0.88772725  0.54001747  0.37220687  1
  N  N57  1  0.77771733  0.43028795  0.12543502  1
  N  N58  1  0.55626876  0.53969921  0.87577667  1
  N  N59  1  0.44301605  0.43043219  0.62195334  1
  N  N60  1  0.21966258  0.87272461  0.37283367  1
  N  N61  1  0.12571954  0.75650264  0.11849760  1
  N  N62  1  0.89317400  0.86337822  0.88686885  1
  N  N63  1  0.80214709  0.77320307  0.61759574  1
  N  N64  1  0.56011580  0.86337763  0.38686875  1
  N  N65  1  0.45732239  0.77744383  0.12214116  1
  N  N66  1  0.22427987  0.87272483  0.87283319  1
  N  N67  1  0.08190016  0.77744331  0.62214090  1
  N  N68  1  0.88770173  0.87133682  0.31055214  1
  N  N69  1  0.74131606  0.77320338  0.11759606  1
  N  N70  1  0.55763052  0.87133742  0.81055234  1
  N  N71  1  0.43444458  0.75650366  0.61849792  1
