# generated using pymatgen
data_Al17BN18
_symmetry_space_group_name_H-M   'P 1'
_cell_length_a   9.33453451
_cell_length_b   9.31729818
_cell_length_c   10.09964164
_cell_angle_alpha   89.79342671
_cell_angle_beta   90.04415112
_cell_angle_gamma   59.98582813
_symmetry_Int_Tables_number   1
_chemical_formula_structural   Al17BN18
_chemical_formula_sum   'Al34 B2 N36'
_cell_volume   760.59326828
_cell_formula_units_Z   2
loop_
 _symmetry_equiv_pos_site_id
 _symmetry_equiv_pos_as_xyz
  1  'x, y, z'
loop_
 _atom_site_type_symbol
 _atom_site_label
 _atom_site_symmetry_multiplicity
 _atom_site_fract_x
 _atom_site_fract_y
 _atom_site_fract_z
 _atom_site_occupancy
  Al  Al0  1  0.11405575  0.09321521  0.38860792  1
  Al  Al1  1  0.22618867  0.19988562  0.13558304  1
  Al  Al2  1  0.77699678  0.09617711  0.89365619  1
  Al  Al3  1  0.89181324  0.19684370  0.63309670  1
  Al  Al4  1  0.44372755  0.09608428  0.39318342  1
  Al  Al5  1  0.55808976  0.19943985  0.13885938  1
  Al  Al6  1  0.11065690  0.09321221  0.88854027  1
  Al  Al7  1  0.21954022  0.20814376  0.64113977  1
  Al  Al8  1  0.78080759  0.08417173  0.38018388  1
  Al  Al9  1  0.89084108  0.20482514  0.14030458  1
  Al  Al10  1  0.45093928  0.08494398  0.87989013  1
  Al  Al11  1  0.55901405  0.19951602  0.63885564  1
  Al  Al12  1  0.11858922  0.42350213  0.38458103  1
  Al  Al13  1  0.22529636  0.53752775  0.14088316  1
  Al  Al14  1  0.77871866  0.42634343  0.85045911  1
  Al  Al15  1  0.88560821  0.54965490  0.56508061  1
  Al  Al16  1  0.44585834  0.42656418  0.38856870  1
  Al  Al17  1  0.55520702  0.54384599  0.13453542  1
  Al  Al18  1  0.11824076  0.42600012  0.88710152  1
  Al  Al19  1  0.21522984  0.54279250  0.63597109  1
  Al  Al20  1  0.77586297  0.42865008  0.35862965  1
  Al  Al21  1  0.87575202  0.54925139  0.06468603  1
  Al  Al22  1  0.44407523  0.42630914  0.88860233  1
  Al  Al23  1  0.54942371  0.53979201  0.63903542  1
  Al  Al24  1  0.10476999  0.76426968  0.37823230  1
  Al  Al25  1  0.22963534  0.87445926  0.13918125  1
  Al  Al26  1  0.78588409  0.76558366  0.81243508  1
  Al  Al27  1  0.44237425  0.76017367  0.39424041  1
  Al  Al28  1  0.11487830  0.75895407  0.89407150  1
  Al  Al29  1  0.21220941  0.87487592  0.63936799  1
  Al  Al30  1  0.76613658  0.76556385  0.31197363  1
  Al  Al31  1  0.88612212  0.87483423  0.10518808  1
  Al  Al32  1  0.44747756  0.76490103  0.87905640  1
  Al  Al33  1  0.55503100  0.87565324  0.60608525  1
  B  B34  1  0.89105119  0.87048014  0.59451758  1
  B  B35  1  0.55436537  0.87144367  0.09450886  1
  N  N36  1  0.22498083  0.20317005  0.32404322  1
  N  N37  1  0.11092358  0.09459944  0.07712990  1
  N  N38  1  0.89128207  0.19864067  0.82317729  1
  N  N39  1  0.79257485  0.06207976  0.57695361  1
  N  N40  1  0.55545208  0.20417630  0.32805884  1
  N  N41  1  0.46065190  0.06310916  0.07720497  1
  N  N42  1  0.22298365  0.20444740  0.83053911  1
  N  N43  1  0.11218483  0.09489988  0.57711721  1
  N  N44  1  0.89132880  0.20061082  0.33182542  1
  N  N45  1  0.77360854  0.10573801  0.08086067  1
  N  N46  1  0.55755992  0.20407418  0.82793310  1
  N  N47  1  0.43636822  0.10641769  0.58098388  1
  N  N48  1  0.22441768  0.53849157  0.32952532  1
  N  N49  1  0.11561976  0.42704708  0.07888298  1
  N  N50  1  0.88619355  0.54510494  0.87120500  1
  N  N51  1  0.77533859  0.42908315  0.59715023  1
  N  N52  1  0.54925066  0.54314827  0.32505587  1
  N  N53  1  0.44494458  0.42539817  0.07776632  1
  N  N54  1  0.22257339  0.54065630  0.82443969  1
  N  N55  1  0.11528131  0.42521277  0.57648429  1
  N  N56  1  0.88659556  0.54573125  0.37164824  1
  N  N57  1  0.77764823  0.42669326  0.09786991  1
  N  N58  1  0.55078072  0.54022050  0.82967020  1
  N  N59  1  0.44424844  0.42563241  0.57778831  1
  N  N60  1  0.22388953  0.87226899  0.32794713  1
  N  N61  1  0.12629013  0.75622514  0.08230308  1
  N  N62  1  0.88762941  0.86862655  0.88714830  1
  N  N63  1  0.80184967  0.77550813  0.61953351  1
  N  N64  1  0.56107307  0.86879721  0.38673081  1
  N  N65  1  0.45848760  0.77764108  0.07574740  1
  N  N66  1  0.22095279  0.87190843  0.82815042  1
  N  N67  1  0.08044273  0.77703759  0.57605759  1
  N  N68  1  0.89118384  0.87137408  0.30985570  1
  N  N69  1  0.73868225  0.77651663  0.11874713  1
  N  N70  1  0.55448994  0.87147241  0.81018916  1
  N  N71  1  0.43289978  0.75809494  0.58194595  1
