# generated using pymatgen
data_Al17BN18
_symmetry_space_group_name_H-M   'P 1'
_cell_length_a   9.33661694
_cell_length_b   9.33816152
_cell_length_c   10.15497800
_cell_angle_alpha   89.72158627
_cell_angle_beta   90.03780706
_cell_angle_gamma   59.89626025
_symmetry_Int_Tables_number   1
_chemical_formula_structural   Al17BN18
_chemical_formula_sum   'Al34 B2 N36'
_cell_volume   765.94518593
_cell_formula_units_Z   2
loop_
 _symmetry_equiv_pos_site_id
 _symmetry_equiv_pos_as_xyz
  1  'x, y, z'
loop_
 _atom_site_type_symbol
 _atom_site_label
 _atom_site_symmetry_multiplicity
 _atom_site_fract_x
 _atom_site_fract_y
 _atom_site_fract_z
 _atom_site_occupancy
  Al  Al0  1  0.11222816  0.09399861  0.38975857  1
  Al  Al1  1  0.23011088  0.19405900  0.13411349  1
  Al  Al2  1  0.77708158  0.09703156  0.89481441  1
  Al  Al3  1  0.89266046  0.19387997  0.63538536  1
  Al  Al4  1  0.44231841  0.09699399  0.39460016  1
  Al  Al5  1  0.55890596  0.19780457  0.14104691  1
  Al  Al6  1  0.10985776  0.09356246  0.89025091  1
  Al  Al7  1  0.22281586  0.20027268  0.64154391  1
  Al  Al8  1  0.78065809  0.08506379  0.38123841  1
  Al  Al9  1  0.89427820  0.19927176  0.14161572  1
  Al  Al10  1  0.45159375  0.08472665  0.88166654  1
  Al  Al11  1  0.55928795  0.19798763  0.64053205  1
  Al  Al12  1  0.10451962  0.42961620  0.31826844  1
  Al  Al13  1  0.22857038  0.54147341  0.14136165  1
  Al  Al14  1  0.77976563  0.43094495  0.81976843  1
  Al  Al15  1  0.89154649  0.54448013  0.56324593  1
  Al  Al16  1  0.44568893  0.42574580  0.38828736  1
  Al  Al17  1  0.55564099  0.54349873  0.11302431  1
  Al  Al18  1  0.10607362  0.43177782  0.82243216  1
  Al  Al19  1  0.21744687  0.54652225  0.63473253  1
  Al  Al20  1  0.77476827  0.43384248  0.31933211  1
  Al  Al21  1  0.88229052  0.54460383  0.06343995  1
  Al  Al22  1  0.44272566  0.42478376  0.88884082  1
  Al  Al23  1  0.54933728  0.54002151  0.62853185  1
  Al  Al24  1  0.10481070  0.76461184  0.37963712  1
  Al  Al25  1  0.23127125  0.87405263  0.14163539  1
  Al  Al26  1  0.78550545  0.76628944  0.81397684  1
  Al  Al27  1  0.44230045  0.76020350  0.39423744  1
  Al  Al28  1  0.11502255  0.75983255  0.89569791  1
  Al  Al29  1  0.21119679  0.87524056  0.64097992  1
  Al  Al30  1  0.76550824  0.76619645  0.31406435  1
  Al  Al31  1  0.88606910  0.87414010  0.10608275  1
  Al  Al32  1  0.44626104  0.76737101  0.87765488  1
  Al  Al33  1  0.55737775  0.87487587  0.60565099  1
  B  B34  1  0.89081734  0.86980838  0.59512507  1
  B  B35  1  0.55669189  0.87024293  0.09510695  1
  N  N36  1  0.22660757  0.19760104  0.32488498  1
  N  N37  1  0.11187286  0.09309918  0.07735459  1
  N  N38  1  0.89154495  0.19821249  0.82551613  1
  N  N39  1  0.79219988  0.06195340  0.57786964  1
  N  N40  1  0.55501473  0.20321791  0.32871296  1
  N  N41  1  0.46319982  0.06199698  0.07775313  1
  N  N42  1  0.22553779  0.19952548  0.83401063  1
  N  N43  1  0.11119485  0.09423690  0.57717636  1
  N  N44  1  0.89060643  0.20062075  0.33316990  1
  N  N45  1  0.77373735  0.10590080  0.08130895  1
  N  N46  1  0.55766673  0.20332959  0.82811595  1
  N  N47  1  0.43675856  0.10619266  0.58100294  1
  N  N48  1  0.22419509  0.54033052  0.33289333  1
  N  N49  1  0.10612597  0.43239033  0.12267704  1
  N  N50  1  0.88605433  0.54376212  0.87731797  1
  N  N51  1  0.77882210  0.43298117  0.62501017  1
  N  N52  1  0.54735082  0.54366795  0.33154775  1
  N  N53  1  0.44500818  0.42148724  0.07735110  1
  N  N54  1  0.22421013  0.54507116  0.82580032  1
  N  N55  1  0.10508578  0.42972910  0.62702860  1
  N  N56  1  0.88620421  0.54290743  0.37693927  1
  N  N57  1  0.78316055  0.42907570  0.12530747  1
  N  N58  1  0.55299664  0.53971237  0.84697099  1
  N  N59  1  0.44500649  0.42333283  0.57824063  1
  N  N60  1  0.22301194  0.87311012  0.32906220  1
  N  N61  1  0.12719598  0.75807680  0.08275739  1
  N  N62  1  0.88703764  0.86883037  0.88928720  1
  N  N63  1  0.80290420  0.77434408  0.62030735  1
  N  N64  1  0.56127409  0.86898904  0.38943743  1
  N  N65  1  0.45841002  0.78010060  0.07499157  1
  N  N66  1  0.21958871  0.87330416  0.82826595  1
  N  N67  1  0.08041719  0.77778420  0.57595121  1
  N  N68  1  0.89083023  0.87143152  0.31093909  1
  N  N69  1  0.74051943  0.77429871  0.12050996  1
  N  N70  1  0.55484896  0.87224068  0.80992771  1
  N  N71  1  0.43192683  0.76006465  0.58348367  1
