# generated using pymatgen
data_Al17BN18
_symmetry_space_group_name_H-M   'P 1'
_cell_length_a   9.33526445
_cell_length_b   9.34468809
_cell_length_c   10.17397815
_cell_angle_alpha   89.73617716
_cell_angle_beta   90.03498912
_cell_angle_gamma   59.87789691
_symmetry_Int_Tables_number   1
_chemical_formula_structural   Al17BN18
_chemical_formula_sum   'Al34 B2 N36'
_cell_volume   767.66213204
_cell_formula_units_Z   2
loop_
 _symmetry_equiv_pos_site_id
 _symmetry_equiv_pos_as_xyz
  1  'x, y, z'
loop_
 _atom_site_type_symbol
 _atom_site_label
 _atom_site_symmetry_multiplicity
 _atom_site_fract_x
 _atom_site_fract_y
 _atom_site_fract_z
 _atom_site_occupancy
  Al  Al0  1  0.11172105  0.09446534  0.38979362  1
  Al  Al1  1  0.23022171  0.19398318  0.13421751  1
  Al  Al2  1  0.77723616  0.09707487  0.89498011  1
  Al  Al3  1  0.89281797  0.19342111  0.63618283  1
  Al  Al4  1  0.44236101  0.09693392  0.39485556  1
  Al  Al5  1  0.55881579  0.19773432  0.14129282  1
  Al  Al6  1  0.10919803  0.09425418  0.89049839  1
  Al  Al7  1  0.22281788  0.20023111  0.64167612  1
  Al  Al8  1  0.78088559  0.08505115  0.38132655  1
  Al  Al9  1  0.89384689  0.19968537  0.14234255  1
  Al  Al10  1  0.45160239  0.08474191  0.88226027  1
  Al  Al11  1  0.55907077  0.19772035  0.64115195  1
  Al  Al12  1  0.10408646  0.42964559  0.31797540  1
  Al  Al13  1  0.22865845  0.54156699  0.14153638  1
  Al  Al14  1  0.77569265  0.43332393  0.81803535  1
  Al  Al15  1  0.89207956  0.54479769  0.56328079  1
  Al  Al16  1  0.44361228  0.42279223  0.38852536  1
  Al  Al17  1  0.56175392  0.53993279  0.07630601  1
  Al  Al18  1  0.10553627  0.43170992  0.82248506  1
  Al  Al19  1  0.21772198  0.54649687  0.63568552  1
  Al  Al20  1  0.77247233  0.43512754  0.31876507  1
  Al  Al21  1  0.88217151  0.54467841  0.06392983  1
  Al  Al22  1  0.44143215  0.42344766  0.88859573  1
  Al  Al23  1  0.55611640  0.53643098  0.58563417  1
  Al  Al24  1  0.10476657  0.76456795  0.37981846  1
  Al  Al25  1  0.23188247  0.87368349  0.14142495  1
  Al  Al26  1  0.78586759  0.76595599  0.81428952  1
  Al  Al27  1  0.44022325  0.76482852  0.39435144  1
  Al  Al28  1  0.11489620  0.75992546  0.89610311  1
  Al  Al29  1  0.21113904  0.87525469  0.64150582  1
  Al  Al30  1  0.76585141  0.76594022  0.31385031  1
  Al  Al31  1  0.88602697  0.87429156  0.10612070  1
  Al  Al32  1  0.44521756  0.76935518  0.87582241  1
  Al  Al33  1  0.55728602  0.87522359  0.60677179  1
  B  B34  1  0.89086637  0.86981730  0.59521891  1
  B  B35  1  0.55626671  0.87052432  0.09568993  1
  N  N36  1  0.22664739  0.19758100  0.32493252  1
  N  N37  1  0.11138792  0.09354777  0.07741942  1
  N  N38  1  0.89077347  0.19913734  0.82546129  1
  N  N39  1  0.79213703  0.06202988  0.57794786  1
  N  N40  1  0.55532746  0.20231761  0.32856891  1
  N  N41  1  0.46322762  0.06234170  0.07776206  1
  N  N42  1  0.22560039  0.19941640  0.83396981  1
  N  N43  1  0.11091776  0.09438955  0.57715167  1
  N  N44  1  0.89052331  0.20075567  0.33303909  1
  N  N45  1  0.77378188  0.10614367  0.08123058  1
  N  N46  1  0.55780053  0.20302261  0.82823012  1
  N  N47  1  0.43679179  0.10591092  0.58100738  1
  N  N48  1  0.22383493  0.54060502  0.33250912  1
  N  N49  1  0.10573072  0.43243142  0.12295944  1
  N  N50  1  0.88551604  0.54335509  0.87760000  1
  N  N51  1  0.77799826  0.43384060  0.62727990  1
  N  N52  1  0.55378502  0.53916948  0.36490896  1
  N  N53  1  0.44420247  0.42011413  0.07907473  1
  N  N54  1  0.22387788  0.54532766  0.82603791  1
  N  N55  1  0.10498624  0.42976170  0.62754983  1
  N  N56  1  0.88621333  0.54275817  0.37724837  1
  N  N57  1  0.78034219  0.43117868  0.12865792  1
  N  N58  1  0.55742335  0.53833812  0.87487251  1
  N  N59  1  0.44304297  0.42112136  0.57988432  1
  N  N60  1  0.22285849  0.87307877  0.32873668  1
  N  N61  1  0.12719579  0.75809878  0.08275257  1
  N  N62  1  0.88697394  0.86898370  0.88920577  1
  N  N63  1  0.80295438  0.77440317  0.62057715  1
  N  N64  1  0.56162678  0.86953219  0.38904659  1
  N  N65  1  0.45785107  0.78184935  0.07661439  1
  N  N66  1  0.21895065  0.87365821  0.82840917  1
  N  N67  1  0.08064456  0.77762036  0.57601727  1
  N  N68  1  0.89093739  0.87148203  0.31103860  1
  N  N69  1  0.74076170  0.77446743  0.12061151  1
  N  N70  1  0.55517031  0.87260171  0.80998517  1
  N  N71  1  0.43111651  0.76275193  0.58596422  1
