# generated using pymatgen
data_Al17BN18
_symmetry_space_group_name_H-M   'P 1'
_cell_length_a   9.35248812
_cell_length_b   9.29913491
_cell_length_c   10.20779083
_cell_angle_alpha   89.36122139
_cell_angle_beta   89.99997359
_cell_angle_gamma   59.80987222
_symmetry_Int_Tables_number   1
_chemical_formula_structural   Al17BN18
_chemical_formula_sum   'Al34 B2 N36'
_cell_volume   767.29213227
_cell_formula_units_Z   2
loop_
 _symmetry_equiv_pos_site_id
 _symmetry_equiv_pos_as_xyz
  1  'x, y, z'
loop_
 _atom_site_type_symbol
 _atom_site_label
 _atom_site_symmetry_multiplicity
 _atom_site_fract_x
 _atom_site_fract_y
 _atom_site_fract_z
 _atom_site_occupancy
  Al  Al0  1  0.11001439  0.09936296  0.39062750  1
  Al  Al1  1  0.22890836  0.19471178  0.13920500  1
  Al  Al2  1  0.77580944  0.09881490  0.89716982  1
  Al  Al3  1  0.89304692  0.19471120  0.63920522  1
  Al  Al4  1  0.44204283  0.09881463  0.39716974  1
  Al  Al5  1  0.56174016  0.19230667  0.14425483  1
  Al  Al6  1  0.10728993  0.09936263  0.89062802  1
  Al  Al7  1  0.22514931  0.20044535  0.64575361  1
  Al  Al8  1  0.78262783  0.08315231  0.38892953  1
  Al  Al9  1  0.89107163  0.20044641  0.14575352  1
  Al  Al10  1  0.45088706  0.08315136  0.88892938  1
  Al  Al11  1  0.56262090  0.19230596  0.64425491  1
  Al  Al12  1  0.10796604  0.43528556  0.31790415  1
  Al  Al13  1  0.22481130  0.53758778  0.06568922  1
  Al  Al14  1  0.77341554  0.43528562  0.81790426  1
  Al  Al15  1  0.89267219  0.54341429  0.56745612  1
  Al  Al16  1  0.44115430  0.43298480  0.32068086  1
  Al  Al17  1  0.55894292  0.54073388  0.07030394  1
  Al  Al18  1  0.10775964  0.43409669  0.82270466  1
  Al  Al19  1  0.21699082  0.54073234  0.57030403  1
  Al  Al20  1  0.77481005  0.43409752  0.32270444  1
  Al  Al21  1  0.88057986  0.54341499  0.06745613  1
  Al  Al22  1  0.44252849  0.43298449  0.82068064  1
  Al  Al23  1  0.55426851  0.53758795  0.56568929  1
  Al  Al24  1  0.11259048  0.76053797  0.31377981  1
  Al  Al25  1  0.23076698  0.87074824  0.08606327  1
  Al  Al26  1  0.78235203  0.76540457  0.82058925  1
  Al  Al27  1  0.44732033  0.76645429  0.32883564  1
  Al  Al28  1  0.10289247  0.76645404  0.82883562  1
  Al  Al29  1  0.21515029  0.87074767  0.58606143  1
  Al  Al30  1  0.76890963  0.76540473  0.32058960  1
  Al  Al31  1  0.88464307  0.87188467  0.09784477  1
  Al  Al32  1  0.44353670  0.76053784  0.81377939  1
  Al  Al33  1  0.56013816  0.87188523  0.59784568  1
  B  B34  1  0.89111041  0.86949734  0.60794346  1
  B  B35  1  0.55605797  0.86949823  0.10794377  1
  N  N36  1  0.22726294  0.19951497  0.32648375  1
  N  N37  1  0.10596671  0.10185464  0.07898088  1
  N  N38  1  0.88988903  0.19951494  0.82648390  1
  N  N39  1  0.79399174  0.06184930  0.58371992  1
  N  N40  1  0.55928490  0.19810853  0.33258619  1
  N  N41  1  0.46082576  0.06184980  0.08371986  1
  N  N42  1  0.22668131  0.19998009  0.83519853  1
  N  N43  1  0.10884586  0.10185410  0.57898049  1
  N  N44  1  0.89000480  0.19998086  0.33519848  1
  N  N45  1  0.77320987  0.10613018  0.08159448  1
  N  N46  1  0.55927332  0.19810801  0.83258625  1
  N  N47  1  0.43732733  0.10613037  0.58159442  1
  N  N48  1  0.22172649  0.53893737  0.38362394  1
  N  N49  1  0.10595517  0.43630466  0.12754979  1
  N  N50  1  0.88715331  0.53984662  0.88087000  1
  N  N51  1  0.77440761  0.43630436  0.62755006  1
  N  N52  1  0.55509291  0.53832896  0.37948300  1
  N  N53  1  0.44271681  0.43187239  0.13037849  1
  N  N54  1  0.22324525  0.53832834  0.87948286  1
  N  N55  1  0.10730323  0.43399485  0.63359045  1
  N  N56  1  0.88966684  0.53984661  0.38086997  1
  N  N57  1  0.77536843  0.43399575  0.13359027  1
  N  N58  1  0.55600282  0.53893743  0.88362387  1
  N  N59  1  0.44207900  0.43187180  0.63037826  1
  N  N60  1  0.22318811  0.86943895  0.36830668  1
  N  N61  1  0.12140834  0.75602978  0.12599208  1
  N  N62  1  0.89041667  0.86514347  0.89566630  1
  N  N63  1  0.80091992  0.77450553  0.62535234  1
  N  N64  1  0.56110596  0.86514352  0.39566658  1
  N  N65  1  0.46013318  0.77708845  0.13062581  1
  N  N66  1  0.22403885  0.86943862  0.86830802  1
  N  N67  1  0.07944530  0.77708738  0.63062563  1
  N  N68  1  0.88678918  0.87251798  0.32254400  1
  N  N69  1  0.74124083  0.77450582  0.12535253  1
  N  N70  1  0.55735867  0.87251734  0.82254290  1
  N  N71  1  0.43922750  0.75603021  0.62599165  1
