# generated using pymatgen
data_Al17BN18
_symmetry_space_group_name_H-M   'P 1'
_cell_length_a   9.32840050
_cell_length_b   9.34252608
_cell_length_c   10.19928887
_cell_angle_alpha   89.74909981
_cell_angle_beta   90.03982633
_cell_angle_gamma   59.84867940
_symmetry_Int_Tables_number   1
_chemical_formula_structural   Al17BN18
_chemical_formula_sum   'Al34 B2 N36'
_cell_volume   768.60143803
_cell_formula_units_Z   2
loop_
 _symmetry_equiv_pos_site_id
 _symmetry_equiv_pos_as_xyz
  1  'x, y, z'
loop_
 _atom_site_type_symbol
 _atom_site_label
 _atom_site_symmetry_multiplicity
 _atom_site_fract_x
 _atom_site_fract_y
 _atom_site_fract_z
 _atom_site_occupancy
  Al  Al0  1  0.11158667  0.09460710  0.38982413  1
  Al  Al1  1  0.23032338  0.19383332  0.13396042  1
  Al  Al2  1  0.77722212  0.09708205  0.89497862  1
  Al  Al3  1  0.89269985  0.19362343  0.63633865  1
  Al  Al4  1  0.44240335  0.09686060  0.39494070  1
  Al  Al5  1  0.55880359  0.19778319  0.14130622  1
  Al  Al6  1  0.10876869  0.09445851  0.89049059  1
  Al  Al7  1  0.22281472  0.20039639  0.64186423  1
  Al  Al8  1  0.78100207  0.08490816  0.38151171  1
  Al  Al9  1  0.89342644  0.20002609  0.14260902  1
  Al  Al10  1  0.45171341  0.08461177  0.88243792  1
  Al  Al11  1  0.55864293  0.19825473  0.64128065  1
  Al  Al12  1  0.10395683  0.42957670  0.31713663  1
  Al  Al13  1  0.22877711  0.54176252  0.14151493  1
  Al  Al14  1  0.77409401  0.43425973  0.81646408  1
  Al  Al15  1  0.89254604  0.54461663  0.56345681  1
  Al  Al16  1  0.44226202  0.42167254  0.38928383  1
  Al  Al17  1  0.56287511  0.53940819  0.07116374  1
  Al  Al18  1  0.10507655  0.43148089  0.82293376  1
  Al  Al19  1  0.21824909  0.54667595  0.63757444  1
  Al  Al20  1  0.77225704  0.43522459  0.31914633  1
  Al  Al21  1  0.88174380  0.54468043  0.06402992  1
  Al  Al22  1  0.44121169  0.42308091  0.88892668  1
  Al  Al23  1  0.55834197  0.53521019  0.57457833  1
  Al  Al24  1  0.10495961  0.76425386  0.38028960  1
  Al  Al25  1  0.23197330  0.87371436  0.14123047  1
  Al  Al26  1  0.78612674  0.76568821  0.81420444  1
  Al  Al27  1  0.43935070  0.76680087  0.39479019  1
  Al  Al28  1  0.11487565  0.76004348  0.89647629  1
  Al  Al29  1  0.21167273  0.87515277  0.64150550  1
  Al  Al30  1  0.76633966  0.76573876  0.31363929  1
  Al  Al31  1  0.88617452  0.87427206  0.10615172  1
  Al  Al32  1  0.44502561  0.76957199  0.87507945  1
  Al  Al33  1  0.55720801  0.87511522  0.60742529  1
  B  B34  1  0.89095417  0.86983566  0.59524323  1
  B  B35  1  0.55633654  0.87048191  0.09580378  1
  N  N36  1  0.22671013  0.19741891  0.32448101  1
  N  N37  1  0.11099371  0.09383822  0.07718353  1
  N  N38  1  0.89024361  0.19957252  0.82520080  1
  N  N39  1  0.79209917  0.06215047  0.57777100  1
  N  N40  1  0.55535224  0.20217470  0.32828037  1
  N  N41  1  0.46335248  0.06239424  0.07753907  1
  N  N42  1  0.22564851  0.19908749  0.83394117  1
  N  N43  1  0.11088938  0.09456888  0.57690121  1
  N  N44  1  0.89043784  0.20068778  0.33279088  1
  N  N45  1  0.77383873  0.10616771  0.08099480  1
  N  N46  1  0.55765045  0.20303259  0.82814255  1
  N  N47  1  0.43688112  0.10576526  0.58075104  1
  N  N48  1  0.22388178  0.54079178  0.33125884  1
  N  N49  1  0.10562401  0.43242734  0.12273807  1
  N  N50  1  0.88475748  0.54314821  0.87795235  1
  N  N51  1  0.77755636  0.43423302  0.62724777  1
  N  N52  1  0.55605472  0.53746420  0.37452266  1
  N  N53  1  0.44439551  0.42008873  0.07940059  1
  N  N54  1  0.22362590  0.54529269  0.82687047  1
  N  N55  1  0.10507836  0.43008965  0.62860875  1
  N  N56  1  0.88651049  0.54257212  0.37755024  1
  N  N57  1  0.77880856  0.43231872  0.13034440  1
  N  N58  1  0.55786348  0.53811728  0.87814718  1
  N  N59  1  0.44229449  0.42115158  0.58009393  1
  N  N60  1  0.22290611  0.87284947  0.32834380  1
  N  N61  1  0.12724721  0.75822290  0.08258061  1
  N  N62  1  0.88689925  0.86893576  0.88917590  1
  N  N63  1  0.80299680  0.77443851  0.62073876  1
  N  N64  1  0.56193661  0.86963668  0.38829968  1
  N  N65  1  0.45795426  0.78191802  0.07683125  1
  N  N66  1  0.21869998  0.87370768  0.82822428  1
  N  N67  1  0.08103157  0.77733789  0.57613396  1
  N  N68  1  0.89126483  0.87141163  0.31112573  1
  N  N69  1  0.74111187  0.77444924  0.12080149  1
  N  N70  1  0.55524547  0.87261934  0.80994159  1
  N  N71  1  0.43149268  0.76289388  0.58606177  1
