# generated using pymatgen
data_Al17BN18
_symmetry_space_group_name_H-M   'P 1'
_cell_length_a   9.31167906
_cell_length_b   9.30233115
_cell_length_c   10.09721090
_cell_angle_alpha   89.62978084
_cell_angle_beta   89.99996477
_cell_angle_gamma   59.96669858
_symmetry_Int_Tables_number   1
_chemical_formula_structural   Al17BN18
_chemical_formula_sum   'Al34 B2 N36'
_cell_volume   757.17091932
_cell_formula_units_Z   2
loop_
 _symmetry_equiv_pos_site_id
 _symmetry_equiv_pos_as_xyz
  1  'x, y, z'
loop_
 _atom_site_type_symbol
 _atom_site_label
 _atom_site_symmetry_multiplicity
 _atom_site_fract_x
 _atom_site_fract_y
 _atom_site_fract_z
 _atom_site_occupancy
  Al  Al0  1  0.11303758  0.09451939  0.38698562  1
  Al  Al1  1  0.22748218  0.19861458  0.13440143  1
  Al  Al2  1  0.77641186  0.09762410  0.89267416  1
  Al  Al3  1  0.89056820  0.19861453  0.63440177  1
  Al  Al4  1  0.44263086  0.09762417  0.39267392  1
  Al  Al5  1  0.55779355  0.19909628  0.13801408  1
  Al  Al6  1  0.10910910  0.09451840  0.88698555  1
  Al  Al7  1  0.22043711  0.20723381  0.64002282  1
  Al  Al8  1  0.78119677  0.08677445  0.37916432  1
  Al  Al9  1  0.88899389  0.20723340  0.14002278  1
  Al  Al10  1  0.44869563  0.08677539  0.87916457  1
  Al  Al11  1  0.55977736  0.19909702  0.63801417  1
  Al  Al12  1  0.11107292  0.42743552  0.38433502  1
  Al  Al13  1  0.22553313  0.53744664  0.13986089  1
  Al  Al14  1  0.77815939  0.42743441  0.88433523  1
  Al  Al15  1  0.89431717  0.53703134  0.63208540  1
  Al  Al16  1  0.44649185  0.42676125  0.38663766  1
  Al  Al17  1  0.55763298  0.54272740  0.13372462  1
  Al  Al18  1  0.11000328  0.42997849  0.88595016  1
  Al  Al19  1  0.21630703  0.54272726  0.63372462  1
  Al  Al20  1  0.77668577  0.42997910  0.38594989  1
  Al  Al21  1  0.88531976  0.53703144  0.13208581  1
  Al  Al22  1  0.44341400  0.42676063  0.88663760  1
  Al  Al23  1  0.55368808  0.53744613  0.63986095  1
  Al  Al24  1  0.10535947  0.76432317  0.37779547  1
  Al  Al25  1  0.22949505  0.87450185  0.13820167  1
  Al  Al26  1  0.78137107  0.77042052  0.81577886  1
  Al  Al27  1  0.44329869  0.75843274  0.39327602  1
  Al  Al28  1  0.11493699  0.75843117  0.89327611  1
  Al  Al29  1  0.21266792  0.87450227  0.63820172  1
  Al  Al30  1  0.76487965  0.77041787  0.31577608  1
  Al  Al31  1  0.88528806  0.87454949  0.10276331  1
  Al  Al32  1  0.44698282  0.76432256  0.87779538  1
  Al  Al33  1  0.55682875  0.87455144  0.60276323  1
  B  B34  1  0.89098587  0.87018925  0.59287781  1
  B  B35  1  0.55549431  0.87018774  0.09287812  1
  N  N36  1  0.22459488  0.20455681  0.32312759  1
  N  N37  1  0.10979214  0.09556566  0.07631360  1
  N  N38  1  0.88751477  0.20455741  0.82312754  1
  N  N39  1  0.79296443  0.06332662  0.57607798  1
  N  N40  1  0.55544390  0.20420599  0.32688883  1
  N  N41  1  0.46037476  0.06332645  0.07607821  1
  N  N42  1  0.22140401  0.20625838  0.82960996  1
  N  N43  1  0.11130875  0.09556577  0.57631341  1
  N  N44  1  0.88900357  0.20625937  0.32960994  1
  N  N45  1  0.77336011  0.10679571  0.08020118  1
  N  N46  1  0.55701638  0.20420533  0.82688864  1
  N  N47  1  0.43651027  0.10679504  0.58020051  1
  N  N48  1  0.22369234  0.53825442  0.32895892  1
  N  N49  1  0.11206709  0.42860432  0.07570841  1
  N  N50  1  0.88979392  0.53602300  0.82289578  1
  N  N51  1  0.77599566  0.42860550  0.57570873  1
  N  N52  1  0.55495049  0.54052961  0.32304419  1
  N  N53  1  0.44536814  0.42551020  0.07662910  1
  N  N54  1  0.22118738  0.54052828  0.82304407  1
  N  N55  1  0.11157368  0.42686388  0.57303124  1
  N  N56  1  0.89085014  0.53602248  0.32289602  1
  N  N57  1  0.77822922  0.42686404  0.07303098  1
  N  N58  1  0.55472076  0.53825479  0.82895892  1
  N  N59  1  0.44578934  0.42551074  0.57662914  1
  N  N60  1  0.22432540  0.87259434  0.32710953  1
  N  N61  1  0.12627133  0.75613882  0.08159003  1
  N  N62  1  0.88685532  0.86891583  0.88939239  1
  N  N63  1  0.80163180  0.77693435  0.61813539  1
  N  N64  1  0.56088996  0.86891892  0.38939431  1
  N  N65  1  0.45848604  0.77687601  0.07491876  1
  N  N66  1  0.21974803  0.87259373  0.82710903  1
  N  N67  1  0.08130486  0.77687532  0.57491882  1
  N  N68  1  0.89131608  0.87325525  0.31010073  1
  N  N69  1  0.73809709  0.77693537  0.11813418  1
  N  N70  1  0.55209353  0.87325552  0.81010060  1
  N  N71  1  0.43425721  0.75614041  0.58158956  1
