# generated using pymatgen
data_Al17BN18
_symmetry_space_group_name_H-M   'P 1'
_cell_length_a   9.35484154
_cell_length_b   9.32752759
_cell_length_c   10.15744542
_cell_angle_alpha   89.46828170
_cell_angle_beta   89.99815935
_cell_angle_gamma   59.85178120
_symmetry_Int_Tables_number   1
_chemical_formula_structural   Al17BN18
_chemical_formula_sum   'Al34 B2 N36'
_cell_volume   766.37724748
_cell_formula_units_Z   2
loop_
 _symmetry_equiv_pos_site_id
 _symmetry_equiv_pos_as_xyz
  1  'x, y, z'
loop_
 _atom_site_type_symbol
 _atom_site_label
 _atom_site_symmetry_multiplicity
 _atom_site_fract_x
 _atom_site_fract_y
 _atom_site_fract_z
 _atom_site_occupancy
  Al  Al0  1  0.10949200  0.09142739  0.32732774  1
  Al  Al1  1  0.23125237  0.19820837  0.13689891  1
  Al  Al2  1  0.77534183  0.09550757  0.89640016  1
  Al  Al3  1  0.89072830  0.20294853  0.59514100  1
  Al  Al4  1  0.44250961  0.09780328  0.39881434  1
  Al  Al5  1  0.56049310  0.19179704  0.14548650  1
  Al  Al6  1  0.10951734  0.08988871  0.82175708  1
  Al  Al7  1  0.22946490  0.20505433  0.64411847  1
  Al  Al8  1  0.78144773  0.08127377  0.38966185  1
  Al  Al9  1  0.88624994  0.20937941  0.10532311  1
  Al  Al10  1  0.45022791  0.08263574  0.88985853  1
  Al  Al11  1  0.56538815  0.19103109  0.64593291  1
  Al  Al12  1  0.10815701  0.43604579  0.32000568  1
  Al  Al13  1  0.22483262  0.53903369  0.06658879  1
  Al  Al14  1  0.77447612  0.43215360  0.81776628  1
  Al  Al15  1  0.89278094  0.54588401  0.56813051  1
  Al  Al16  1  0.44170806  0.43187885  0.32212815  1
  Al  Al17  1  0.55600484  0.54289125  0.07219849  1
  Al  Al18  1  0.10703939  0.43469181  0.82575085  1
  Al  Al19  1  0.21788590  0.54237341  0.57237461  1
  Al  Al20  1  0.77633084  0.43089175  0.32699245  1
  Al  Al21  1  0.87926564  0.54531566  0.06829419  1
  Al  Al22  1  0.44381297  0.43149531  0.82221062  1
  Al  Al23  1  0.55242295  0.53980356  0.56670462  1
  Al  Al24  1  0.11476437  0.75952716  0.31369465  1
  Al  Al25  1  0.22798050  0.87431458  0.06822584  1
  Al  Al26  1  0.78218833  0.76497511  0.82194673  1
  Al  Al27  1  0.44612066  0.76658621  0.32765212  1
  Al  Al28  1  0.10421626  0.76596739  0.82756646  1
  Al  Al29  1  0.21458199  0.87364752  0.56855057  1
  Al  Al30  1  0.76813085  0.76582677  0.32150975  1
  Al  Al31  1  0.88687594  0.87059322  0.10220040  1
  Al  Al32  1  0.44275216  0.75946701  0.81419621  1
  Al  Al33  1  0.55899854  0.87140066  0.60179786  1
  B  B34  1  0.89254470  0.86901553  0.61044685  1
  B  B35  1  0.55464444  0.86886806  0.10909226  1
  N  N36  1  0.22931759  0.20325435  0.32996708  1
  N  N37  1  0.10931442  0.09047191  0.13200383  1
  N  N38  1  0.88525396  0.20567252  0.84923791  1
  N  N39  1  0.79422078  0.05848511  0.58594529  1
  N  N40  1  0.55933303  0.19766451  0.33390020  1
  N  N41  1  0.46104706  0.06041994  0.08454575  1
  N  N42  1  0.22699684  0.20295519  0.84099580  1
  N  N43  1  0.11544563  0.09031072  0.62847066  1
  N  N44  1  0.88771157  0.20681245  0.37773408  1
  N  N45  1  0.77117040  0.10292451  0.08412157  1
  N  N46  1  0.55851552  0.19743242  0.83442954  1
  N  N47  1  0.44081092  0.10456100  0.58317908  1
  N  N48  1  0.22199856  0.54029706  0.38451268  1
  N  N49  1  0.10499110  0.43771819  0.12737367  1
  N  N50  1  0.88531711  0.54105101  0.88134147  1
  N  N51  1  0.77426864  0.43791917  0.62736567  1
  N  N52  1  0.55335344  0.54017949  0.37903442  1
  N  N53  1  0.44311206  0.43002406  0.13083370  1
  N  N54  1  0.22361720  0.53956089  0.87946052  1
  N  N55  1  0.10761378  0.43544939  0.63416365  1
  N  N56  1  0.88897988  0.54188396  0.38073051  1
  N  N57  1  0.77496753  0.43328516  0.13657384  1
  N  N58  1  0.55519614  0.53992142  0.88453408  1
  N  N59  1  0.44428683  0.42984779  0.63084784  1
  N  N60  1  0.22203011  0.86944626  0.38128337  1
  N  N61  1  0.12550729  0.75631863  0.12667321  1
  N  N62  1  0.89226215  0.86334309  0.89635883  1
  N  N63  1  0.80191481  0.77402118  0.62640293  1
  N  N64  1  0.55973009  0.86500551  0.39602070  1
  N  N65  1  0.45673476  0.77825216  0.13022492  1
  N  N66  1  0.22464576  0.86978090  0.88126068  1
  N  N67  1  0.08184646  0.77775358  0.63059864  1
  N  N68  1  0.88781221  0.87264367  0.31941903  1
  N  N69  1  0.73987826  0.77415079  0.12585709  1
  N  N70  1  0.55611205  0.87254969  0.82140713  1
  N  N71  1  0.43518772  0.75676804  0.62700818  1
