# generated using pymatgen
data_Al17BN18
_symmetry_space_group_name_H-M   'P 1'
_cell_length_a   9.31160563
_cell_length_b   9.30233457
_cell_length_c   10.09730788
_cell_angle_alpha   89.62942712
_cell_angle_beta   90.00000665
_cell_angle_gamma   59.96702799
_symmetry_Int_Tables_number   1
_chemical_formula_structural   Al17BN18
_chemical_formula_sum   'Al34 B2 N36'
_cell_volume   757.17497295
_cell_formula_units_Z   2
loop_
 _symmetry_equiv_pos_site_id
 _symmetry_equiv_pos_as_xyz
  1  'x, y, z'
loop_
 _atom_site_type_symbol
 _atom_site_label
 _atom_site_symmetry_multiplicity
 _atom_site_fract_x
 _atom_site_fract_y
 _atom_site_fract_z
 _atom_site_occupancy
  Al  Al0  1  0.11306477  0.09451495  0.39191765  1
  Al  Al1  1  0.22747398  0.19860988  0.13933311  1
  Al  Al2  1  0.77638807  0.09761839  0.89760067  1
  Al  Al3  1  0.89058150  0.19861019  0.63933312  1
  Al  Al4  1  0.44265980  0.09761887  0.39760054  1
  Al  Al5  1  0.55778937  0.19909047  0.14295603  1
  Al  Al6  1  0.10908688  0.09451410  0.89191765  1
  Al  Al7  1  0.22045391  0.20722824  0.64495264  1
  Al  Al8  1  0.78122838  0.08676258  0.38411056  1
  Al  Al9  1  0.88898327  0.20722828  0.14495257  1
  Al  Al10  1  0.44867588  0.08676251  0.88411077  1
  Al  Al11  1  0.55978644  0.19909087  0.64295588  1
  Al  Al12  1  0.11110303  0.42743240  0.38926597  1
  Al  Al13  1  0.22552082  0.53744719  0.14479113  1
  Al  Al14  1  0.77813228  0.42743223  0.88926605  1
  Al  Al15  1  0.89433131  0.53702532  0.63702209  1
  Al  Al16  1  0.44652299  0.42675395  0.39157541  1
  Al  Al17  1  0.55762315  0.54271835  0.13866237  1
  Al  Al18  1  0.10998111  0.42996979  0.89088434  1
  Al  Al19  1  0.21632614  0.54271783  0.63866240  1
  Al  Al20  1  0.77671580  0.42997067  0.39088438  1
  Al  Al21  1  0.88531159  0.53702474  0.13702186  1
  Al  Al22  1  0.44339054  0.42675346  0.89157529  1
  Al  Al23  1  0.55369965  0.53744786  0.64479110  1
  Al  Al24  1  0.10538856  0.76431504  0.38274446  1
  Al  Al25  1  0.22948098  0.87449794  0.14313691  1
  Al  Al26  1  0.78134556  0.77041399  0.82071229  1
  Al  Al27  1  0.44332586  0.75842923  0.39819684  1
  Al  Al28  1  0.11491258  0.75842798  0.89819668  1
  Al  Al29  1  0.21268711  0.87449811  0.64313662  1
  Al  Al30  1  0.76490617  0.77041343  0.32071161  1
  Al  Al31  1  0.88528408  0.87454760  0.10769464  1
  Al  Al32  1  0.44696264  0.76431465  0.88274439  1
  Al  Al33  1  0.55683477  0.87454896  0.60769474  1
  B  B34  1  0.89099974  0.87018161  0.59782705  1
  B  B35  1  0.55548493  0.87018163  0.09782685  1
  N  N36  1  0.22461761  0.20455726  0.32805753  1
  N  N37  1  0.10977959  0.09556192  0.08124474  1
  N  N38  1  0.88749164  0.20455703  0.82805756  1
  N  N39  1  0.79298237  0.06331700  0.58102280  1
  N  N40  1  0.55547793  0.20420033  0.33182752  1
  N  N41  1  0.46036681  0.06331698  0.08102301  1
  N  N42  1  0.22138609  0.20625199  0.83454068  1
  N  N43  1  0.11132399  0.09556218  0.58124470  1
  N  N44  1  0.88902785  0.20625266  0.33454055  1
  N  N45  1  0.77335144  0.10679062  0.08512659  1
  N  N46  1  0.55698859  0.20419992  0.83182739  1
  N  N47  1  0.43652358  0.10679160  0.58512656  1
  N  N48  1  0.22372033  0.53825213  0.33389120  1
  N  N49  1  0.11205458  0.42859859  0.08064092  1
  N  N50  1  0.88977252  0.53601659  0.82782891  1
  N  N51  1  0.77601421  0.42859910  0.58064095  1
  N  N52  1  0.55498064  0.54052043  0.32797823  1
  N  N53  1  0.44535706  0.42550240  0.08156562  1
  N  N54  1  0.22116654  0.54051943  0.82797818  1
  N  N55  1  0.11159069  0.42686090  0.57796244  1
  N  N56  1  0.89087832  0.53601644  0.32782869  1
  N  N57  1  0.77821564  0.42686093  0.07796253  1
  N  N58  1  0.55469499  0.53825184  0.83389122  1
  N  N59  1  0.44580804  0.42550280  0.58156572  1
  N  N60  1  0.22434442  0.87259074  0.33204196  1
  N  N61  1  0.12626013  0.75613508  0.08651088  1
  N  N62  1  0.88683067  0.86891618  0.89432068  1
  N  N63  1  0.80164075  0.77692983  0.62307984  1
  N  N64  1  0.56091965  0.86891700  0.39432068  1
  N  N65  1  0.45847786  0.77686730  0.07986215  1
  N  N66  1  0.21973141  0.87259018  0.83204168  1
  N  N67  1  0.08132119  0.77686711  0.57986221  1
  N  N68  1  0.89134790  0.87324826  0.31503868  1
  N  N69  1  0.73809590  0.77692936  0.12307944  1
  N  N70  1  0.55206942  0.87324861  0.81503885  1
  N  N71  1  0.43427135  0.75613600  0.58651102  1
