# generated using pymatgen
data_Al17BN18
_symmetry_space_group_name_H-M   'P 1'
_cell_length_a   9.33330863
_cell_length_b   9.32592372
_cell_length_c   10.14623847
_cell_angle_alpha   89.74504854
_cell_angle_beta   89.96221861
_cell_angle_gamma   59.99802926
_symmetry_Int_Tables_number   1
_chemical_formula_structural   Al17BN18
_chemical_formula_sum   'Al34 B2 N36'
_cell_volume   764.80294095
_cell_formula_units_Z   2
loop_
 _symmetry_equiv_pos_site_id
 _symmetry_equiv_pos_as_xyz
  1  'x, y, z'
loop_
 _atom_site_type_symbol
 _atom_site_label
 _atom_site_symmetry_multiplicity
 _atom_site_fract_x
 _atom_site_fract_y
 _atom_site_fract_z
 _atom_site_occupancy
  Al  Al0  1  0.11351802  0.09303572  0.38967543  1
  Al  Al1  1  0.22955092  0.19455930  0.13321645  1
  Al  Al2  1  0.77733962  0.09674201  0.89383258  1
  Al  Al3  1  0.89282236  0.19385458  0.63296234  1
  Al  Al4  1  0.44252098  0.09726676  0.39427673  1
  Al  Al5  1  0.55849506  0.19926172  0.14011966  1
  Al  Al6  1  0.11039188  0.09248084  0.88949448  1
  Al  Al7  1  0.22250259  0.20148548  0.64172709  1
  Al  Al8  1  0.78032724  0.08472018  0.38116359  1
  Al  Al9  1  0.89318756  0.20024209  0.14136876  1
  Al  Al10  1  0.45220635  0.08410243  0.88127446  1
  Al  Al11  1  0.55872644  0.19941289  0.64007338  1
  Al  Al12  1  0.10624081  0.42955391  0.32059096  1
  Al  Al13  1  0.22802916  0.54144801  0.13922868  1
  Al  Al14  1  0.78178934  0.42940668  0.81692357  1
  Al  Al15  1  0.89138698  0.54436360  0.56359001  1
  Al  Al16  1  0.44554138  0.42677821  0.38956331  1
  Al  Al17  1  0.55200409  0.54651115  0.13537917  1
  Al  Al18  1  0.10803264  0.43068208  0.82885099  1
  Al  Al19  1  0.21722309  0.54593530  0.63545059  1
  Al  Al20  1  0.77839118  0.43159846  0.32311814  1
  Al  Al21  1  0.87984774  0.54447532  0.06388070  1
  Al  Al22  1  0.44534292  0.42624078  0.88954775  1
  Al  Al23  1  0.54628884  0.54187172  0.63957955  1
  Al  Al24  1  0.10441734  0.76478202  0.37938009  1
  Al  Al25  1  0.22986202  0.87474545  0.14075575  1
  Al  Al26  1  0.78527169  0.76584902  0.81337137  1
  Al  Al27  1  0.44200440  0.76022847  0.39516521  1
  Al  Al28  1  0.11489787  0.75986245  0.89520637  1
  Al  Al29  1  0.21205679  0.87466885  0.64065661  1
  Al  Al30  1  0.76523521  0.76667650  0.31349934  1
  Al  Al31  1  0.88547851  0.87425592  0.10531097  1
  Al  Al32  1  0.44790217  0.76420859  0.87948048  1
  Al  Al33  1  0.55659841  0.87457219  0.60576353  1
  B  B34  1  0.89033089  0.86977800  0.59493224  1
  B  B35  1  0.55621255  0.86994698  0.09511912  1
  N  N36  1  0.22682254  0.19800615  0.32423547  1
  N  N37  1  0.11093780  0.09354690  0.07687525  1
  N  N38  1  0.89245203  0.19739716  0.82405448  1
  N  N39  1  0.79187500  0.06180527  0.57732189  1
  N  N40  1  0.55493097  0.20454634  0.32837337  1
  N  N41  1  0.46277470  0.06183663  0.07752374  1
  N  N42  1  0.22620741  0.19891957  0.83425401  1
  N  N43  1  0.11235556  0.09361641  0.57702002  1
  N  N44  1  0.89164864  0.19938249  0.33400340  1
  N  N45  1  0.77349301  0.10588707  0.08062942  1
  N  N46  1  0.55768744  0.20407481  0.82831274  1
  N  N47  1  0.43692606  0.10611601  0.58107686  1
  N  N48  1  0.22524764  0.54072126  0.33128580  1
  N  N49  1  0.10665223  0.43186185  0.11862896  1
  N  N50  1  0.88521869  0.54341418  0.87720455  1
  N  N51  1  0.77808003  0.43217865  0.62109057  1
  N  N52  1  0.54683432  0.54479092  0.32671857  1
  N  N53  1  0.44669095  0.42482637  0.07782396  1
  N  N54  1  0.22566051  0.54405477  0.82710046  1
  N  N55  1  0.10543381  0.42966221  0.62537664  1
  N  N56  1  0.88705839  0.54394810  0.37671698  1
  N  N57  1  0.78122116  0.42969929  0.12751295  1
  N  N58  1  0.55130597  0.54035042  0.83142579  1
  N  N59  1  0.44484052  0.42505182  0.57788100  1
  N  N60  1  0.22357572  0.87246974  0.32849098  1
  N  N61  1  0.12579802  0.75865236  0.08226378  1
  N  N62  1  0.88715637  0.86847792  0.88822057  1
  N  N63  1  0.80194906  0.77445340  0.61988028  1
  N  N64  1  0.56067567  0.86928877  0.38808728  1
  N  N65  1  0.45877238  0.77764682  0.07595163  1
  N  N66  1  0.22118656  0.87192701  0.82840358  1
  N  N67  1  0.08003120  0.77765141  0.57606019  1
  N  N68  1  0.89079444  0.87153508  0.31040738  1
  N  N69  1  0.73984654  0.77451795  0.12003512  1
  N  N70  1  0.55482093  0.87103305  0.81057650  1
  N  N71  1  0.43219358  0.75878708  0.58220948  1
