# generated using pymatgen
data_Al17BN18
_symmetry_space_group_name_H-M   'P 1'
_cell_length_a   9.35637839
_cell_length_b   9.30064162
_cell_length_c   10.20713921
_cell_angle_alpha   89.36051171
_cell_angle_beta   89.99998874
_cell_angle_gamma   59.80147698
_symmetry_Int_Tables_number   1
_chemical_formula_structural   Al17BN18
_chemical_formula_sum   'Al34 B2 N36'
_cell_volume   767.62105544
_cell_formula_units_Z   2
loop_
 _symmetry_equiv_pos_site_id
 _symmetry_equiv_pos_as_xyz
  1  'x, y, z'
loop_
 _atom_site_type_symbol
 _atom_site_label
 _atom_site_symmetry_multiplicity
 _atom_site_fract_x
 _atom_site_fract_y
 _atom_site_fract_z
 _atom_site_occupancy
  Al  Al0  1  0.11069013  0.09807763  0.39055373  1
  Al  Al1  1  0.22894498  0.19493903  0.13914484  1
  Al  Al2  1  0.77578721  0.09892672  0.89707893  1
  Al  Al3  1  0.89278311  0.19493845  0.63914510  1
  Al  Al4  1  0.44195327  0.09892652  0.39707884  1
  Al  Al5  1  0.56176137  0.19231963  0.14425474  1
  Al  Al6  1  0.10789965  0.09807694  0.89055422  1
  Al  Al7  1  0.22518059  0.20057038  0.64572655  1
  Al  Al8  1  0.78266325  0.08321314  0.38890960  1
  Al  Al9  1  0.89091538  0.20057145  0.14572644  1
  Al  Al10  1  0.45079089  0.08321218  0.88890944  1
  Al  Al11  1  0.56258693  0.19231898  0.64425487  1
  Al  Al12  1  0.10796661  0.43516084  0.31795051  1
  Al  Al13  1  0.22489395  0.53741307  0.06552810  1
  Al  Al14  1  0.77353975  0.43516080  0.81795069  1
  Al  Al15  1  0.89264603  0.54343728  0.56743815  1
  Al  Al16  1  0.44117223  0.43300824  0.32064162  1
  Al  Al17  1  0.55888560  0.54085062  0.07018659  1
  Al  Al18  1  0.10773574  0.43393009  0.82272746  1
  Al  Al19  1  0.21693152  0.54084911  0.57018666  1
  Al  Al20  1  0.77500052  0.43393094  0.32272719  1
  Al  Al21  1  0.88058312  0.54343807  0.06743818  1
  Al  Al22  1  0.44248706  0.43300788  0.82064141  1
  Al  Al23  1  0.55436054  0.53741326  0.56552819  1
  Al  Al24  1  0.11218851  0.76010700  0.31383128  1
  Al  Al25  1  0.22999421  0.87236564  0.09721767  1
  Al  Al26  1  0.78227311  0.76542392  0.82051591  1
  Al  Al27  1  0.44826079  0.76602195  0.32928869  1
  Al  Al28  1  0.10238417  0.76602141  0.82928869  1
  Al  Al29  1  0.21430502  0.87236518  0.59721565  1
  Al  Al30  1  0.76896940  0.76542409  0.32051615  1
  Al  Al31  1  0.88442470  0.87191115  0.09754828  1
  Al  Al32  1  0.44436947  0.76010672  0.81383089  1
  Al  Al33  1  0.56033002  0.87191168  0.59754918  1
  B  B34  1  0.89094370  0.86941012  0.60772201  1
  B  B35  1  0.55631232  0.86941084  0.10772234  1
  N  N36  1  0.22717101  0.19957858  0.32653055  1
  N  N37  1  0.10613082  0.10162150  0.07858390  1
  N  N38  1  0.88991758  0.19957859  0.82653068  1
  N  N39  1  0.79392602  0.06188462  0.58372534  1
  N  N40  1  0.55929473  0.19814434  0.33258792  1
  N  N41  1  0.46085611  0.06188508  0.08372529  1
  N  N42  1  0.22659255  0.19991174  0.83524236  1
  N  N43  1  0.10891482  0.10162108  0.57858352  1
  N  N44  1  0.89016199  0.19991271  0.33524230  1
  N  N45  1  0.77320545  0.10616720  0.08157444  1
  N  N46  1  0.55922781  0.19814376  0.83258797  1
  N  N47  1  0.43729474  0.10616719  0.58157434  1
  N  N48  1  0.22177655  0.53886022  0.38357821  1
  N  N49  1  0.10595966  0.43624576  0.12750512  1
  N  N50  1  0.88712881  0.53988320  0.88083136  1
  N  N51  1  0.77446188  0.43624561  0.62750536  1
  N  N52  1  0.55530232  0.53808923  0.37944138  1
  N  N53  1  0.44268685  0.43198112  0.13034873  1
  N  N54  1  0.22327581  0.53808839  0.87944126  1
  N  N55  1  0.10728550  0.43398845  0.63352581  1
  N  N56  1  0.88965482  0.53988321  0.38083141  1
  N  N57  1  0.77539239  0.43398941  0.13352563  1
  N  N58  1  0.55603014  0.53886024  0.88357818  1
  N  N59  1  0.44200024  0.43198052  0.63034849  1
  N  N60  1  0.22316832  0.87076736  0.35967894  1
  N  N61  1  0.12073126  0.75566403  0.12519254  1
  N  N62  1  0.89005162  0.86528298  0.89564341  1
  N  N63  1  0.80075145  0.77450064  0.62531897  1
  N  N64  1  0.56133147  0.86528312  0.39564377  1
  N  N65  1  0.46115880  0.77665204  0.13009053  1
  N  N66  1  0.22273067  0.87076688  0.85968046  1
  N  N67  1  0.07885582  0.77665097  0.63009037  1
  N  N68  1  0.88667777  0.87256162  0.32261787  1
  N  N69  1  0.74141370  0.77450112  0.12531914  1
  N  N70  1  0.55742645  0.87256086  0.82261672  1
  N  N71  1  0.44027011  0.75566457  0.62519204  1
