# generated using pymatgen
data_Al17BN18
_symmetry_space_group_name_H-M   'P 1'
_cell_length_a   9.29147615
_cell_length_b   9.28800465
_cell_length_c   10.02243745
_cell_angle_alpha   89.94891844
_cell_angle_beta   90.00000807
_cell_angle_gamma   59.98761432
_symmetry_Int_Tables_number   1
_chemical_formula_structural   Al17BN18
_chemical_formula_sum   'Al34 B2 N36'
_cell_volume   748.95664918
_cell_formula_units_Z   2
loop_
 _symmetry_equiv_pos_site_id
 _symmetry_equiv_pos_as_xyz
  1  'x, y, z'
loop_
 _atom_site_type_symbol
 _atom_site_label
 _atom_site_symmetry_multiplicity
 _atom_site_fract_x
 _atom_site_fract_y
 _atom_site_fract_z
 _atom_site_occupancy
  Al  Al0  1  0.11205894  0.09437669  0.39650913  1
  Al  Al1  1  0.22659494  0.19967876  0.14561255  1
  Al  Al2  1  0.77959627  0.09164450  0.89444998  1
  Al  Al3  1  0.89039255  0.19967836  0.64561281  1
  Al  Al4  1  0.44542553  0.09164541  0.39444808  1
  Al  Al5  1  0.55815229  0.19889845  0.14668889  1
  Al  Al6  1  0.11023201  0.09437561  0.89650886  1
  Al  Al7  1  0.22224834  0.20586531  0.64764046  1
  Al  Al8  1  0.77989809  0.08896317  0.39463847  1
  Al  Al9  1  0.88855226  0.20586591  0.14764036  1
  Al  Al10  1  0.44780685  0.08896238  0.89464070  1
  Al  Al11  1  0.55961535  0.19889806  0.64668852  1
  Al  Al12  1  0.11101961  0.42730322  0.39572450  1
  Al  Al13  1  0.22277264  0.53911645  0.14799634  1
  Al  Al14  1  0.77834463  0.42730300  0.89572439  1
  Al  Al15  1  0.89052967  0.54399506  0.64641143  1
  Al  Al16  1  0.44536121  0.42724915  0.39631638  1
  Al  Al17  1  0.55743472  0.54290916  0.14564814  1
  Al  Al18  1  0.11084476  0.42905976  0.89679123  1
  Al  Al19  1  0.21632280  0.54290872  0.64564832  1
  Al  Al20  1  0.77676192  0.42906046  0.39679141  1
  Al  Al21  1  0.88214218  0.54399442  0.14641148  1
  Al  Al22  1  0.44405655  0.42724855  0.89631600  1
  Al  Al23  1  0.55477838  0.53911701  0.64799641  1
  Al  Al24  1  0.10632412  0.76382824  0.39396017  1
  Al  Al25  1  0.22700920  0.87383131  0.14672408  1
  Al  Al26  1  0.77456009  0.76489667  0.89221975  1
  Al  Al27  1  0.44578776  0.76187790  0.39498587  1
  Al  Al28  1  0.10900165  0.76187672  0.89498762  1
  Al  Al29  1  0.21582656  0.87383086  0.64672366  1
  Al  Al30  1  0.77720884  0.76489699  0.39221569  1
  Al  Al31  1  0.88355830  0.87386417  0.13993194  1
  Al  Al32  1  0.44651431  0.76382805  0.89396218  1
  Al  Al33  1  0.55924388  0.87386519  0.63993447  1
  B  B34  1  0.88906869  0.87135312  0.62602713  1
  B  B35  1  0.55624452  0.87135289  0.12603902  1
  N  N36  1  0.22265873  0.20549800  0.33485240  1
  N  N37  1  0.11026947  0.09487806  0.08635081  1
  N  N38  1  0.88851015  0.20549728  0.83485244  1
  N  N39  1  0.79152501  0.06628718  0.58908219  1
  N  N40  1  0.55632946  0.20460867  0.33687104  1
  N  N41  1  0.45885362  0.06628836  0.08908387  1
  N  N42  1  0.22309792  0.20535958  0.83870857  1
  N  N43  1  0.11151871  0.09487784  0.58635102  1
  N  N44  1  0.88820934  0.20536057  0.33870859  1
  N  N45  1  0.77760656  0.09651429  0.08509849  1
  N  N46  1  0.55572925  0.20460794  0.83687054  1
  N  N47  1  0.44254604  0.09651322  0.58509668  1
  N  N48  1  0.22216625  0.53961908  0.33852214  1
  N  N49  1  0.11044911  0.42848940  0.08749604  1
  N  N50  1  0.88829048  0.54020596  0.83666870  1
  N  N51  1  0.77772859  0.42848917  0.58749610  1
  N  N52  1  0.55512027  0.53919525  0.33512073  1
  N  N53  1  0.44516402  0.42660905  0.08723645  1
  N  N54  1  0.22235144  0.53919472  0.83512052  1
  N  N55  1  0.11091685  0.42721025  0.58582760  1
  N  N56  1  0.88817056  0.54020574  0.33666893  1
  N  N57  1  0.77853947  0.42721032  0.08582749  1
  N  N58  1  0.55488155  0.53961907  0.83852215  1
  N  N59  1  0.44489379  0.42660948  0.58723680  1
  N  N60  1  0.22222679  0.87166251  0.33690554  1
  N  N61  1  0.11350561  0.76085623  0.08648092  1
  N  N62  1  0.88903649  0.87135104  0.83656889  1
  N  N63  1  0.79289999  0.77448695  0.58795758  1
  N  N64  1  0.55627803  0.87135226  0.33655670  1
  N  N65  1  0.45813730  0.77527220  0.08873111  1
  N  N66  1  0.22277782  0.87166123  0.83690498  1
  N  N67  1  0.08325588  0.77527235  0.58872951  1
  N  N68  1  0.88896697  0.87164697  0.32794719  1
  N  N69  1  0.74927971  0.77448554  0.08796059  1
  N  N70  1  0.55605290  0.87164654  0.82794843  1
  N  N71  1  0.44230631  0.76085720  0.58647935  1
