# generated using pymatgen
data_Al17BN18
_symmetry_space_group_name_H-M   'P 1'
_cell_length_a   9.29051121
_cell_length_b   9.28813682
_cell_length_c   10.00868892
_cell_angle_alpha   89.95871936
_cell_angle_beta   90.00001273
_cell_angle_gamma   59.99150782
_symmetry_Int_Tables_number   1
_chemical_formula_structural   Al17BN18
_chemical_formula_sum   'Al34 B2 N36'
_cell_volume   747.89170834
_cell_formula_units_Z   2
loop_
 _symmetry_equiv_pos_site_id
 _symmetry_equiv_pos_as_xyz
  1  'x, y, z'
loop_
 _atom_site_type_symbol
 _atom_site_label
 _atom_site_symmetry_multiplicity
 _atom_site_fract_x
 _atom_site_fract_y
 _atom_site_fract_z
 _atom_site_occupancy
  Al  Al0  1  0.11186812  0.09437045  0.39641043  1
  Al  Al1  1  0.22655944  0.19978731  0.14560177  1
  Al  Al2  1  0.77955628  0.09154399  0.89330766  1
  Al  Al3  1  0.89031945  0.19978685  0.64560215  1
  Al  Al4  1  0.44556605  0.09154503  0.39330555  1
  Al  Al5  1  0.55819200  0.19893319  0.14643282  1
  Al  Al6  1  0.11042907  0.09436936  0.89641010  1
  Al  Al7  1  0.22253442  0.20561721  0.64730914  1
  Al  Al8  1  0.78004135  0.08888729  0.39568756  1
  Al  Al9  1  0.88851435  0.20561783  0.14730901  1
  Al  Al10  1  0.44773951  0.08888657  0.89568993  1
  Al  Al11  1  0.55954098  0.19893270  0.64643252  1
  Al  Al12  1  0.11097550  0.42739440  0.39570428  1
  Al  Al13  1  0.22248913  0.53933037  0.14768462  1
  Al  Al14  1  0.77829762  0.42739406  0.89570410  1
  Al  Al15  1  0.89030892  0.54407137  0.64626152  1
  Al  Al16  1  0.44529685  0.42729885  0.39621421  1
  Al  Al17  1  0.55733628  0.54293202  0.14563979  1
  Al  Al18  1  0.11093745  0.42883141  0.89672546  1
  Al  Al19  1  0.21639826  0.54293173  0.64564004  1
  Al  Al20  1  0.77689778  0.42883196  0.39672567  1
  Al  Al21  1  0.88228673  0.54407063  0.14626160  1
  Al  Al22  1  0.44407116  0.42729824  0.89621382  1
  Al  Al23  1  0.55484797  0.53933080  0.64768473  1
  Al  Al24  1  0.10612011  0.76388804  0.39504868  1
  Al  Al25  1  0.22671789  0.87367386  0.14646332  1
  Al  Al26  1  0.77444229  0.76498720  0.89232495  1
  Al  Al27  1  0.44585783  0.76199217  0.39378805  1
  Al  Al28  1  0.10881715  0.76199113  0.89379004  1
  Al  Al29  1  0.21627512  0.87367348  0.64646298  1
  Al  Al30  1  0.77723640  0.76498742  0.39232058  1
  Al  Al31  1  0.88349486  0.87373732  0.14110104  1
  Al  Al32  1  0.44665843  0.76388781  0.89505082  1
  Al  Al33  1  0.55943429  0.87373826  0.64110334  1
  B  B34  1  0.88885339  0.87157187  0.63215649  1
  B  B35  1  0.55624115  0.87157163  0.13216934  1
  N  N36  1  0.22250440  0.20550645  0.33499538  1
  N  N37  1  0.11030055  0.09481304  0.08635791  1
  N  N38  1  0.88865598  0.20550577  0.83499543  1
  N  N39  1  0.79121999  0.06691695  0.58991506  1
  N  N40  1  0.55670030  0.20454058  0.33688383  1
  N  N41  1  0.45852880  0.06691826  0.08991697  1
  N  N42  1  0.22336864  0.20520439  0.83859737  1
  N  N43  1  0.11155276  0.09481283  0.58635812  1
  N  N44  1  0.88809388  0.20520537  0.33859738  1
  N  N45  1  0.77799056  0.09557754  0.08418362  1
  N  N46  1  0.55542648  0.20453978  0.83688335  1
  N  N47  1  0.44309884  0.09557635  0.58418165  1
  N  N48  1  0.22200358  0.53988627  0.33844311  1
  N  N49  1  0.11048083  0.42834717  0.08752782  1
  N  N50  1  0.88832253  0.54032400  0.83680029  1
  N  N51  1  0.77783911  0.42834693  0.58752791  1
  N  N52  1  0.55526975  0.53908021  0.33525678  1
  N  N53  1  0.44512887  0.42671834  0.08726901  1
  N  N54  1  0.22231696  0.53907976  0.83525657  1
  N  N55  1  0.11099083  0.42714401  0.58591969  1
  N  N56  1  0.88802040  0.54032370  0.33680053  1
  N  N57  1  0.77853175  0.42714414  0.08591955  1
  N  N58  1  0.55477700  0.53988632  0.83844314  1
  N  N59  1  0.44481964  0.42671873  0.58726934  1
  N  N60  1  0.22198912  0.87159181  0.33690909  1
  N  N61  1  0.11233009  0.76128407  0.08553539  1
  N  N62  1  0.88884211  0.87137585  0.82991382  1
  N  N63  1  0.79187797  0.77449907  0.58802211  1
  N  N64  1  0.55644728  0.87137715  0.32990130  1
  N  N65  1  0.45791376  0.77497962  0.08959351  1
  N  N66  1  0.22308631  0.87159048  0.83690856  1
  N  N67  1  0.08377192  0.77497984  0.58959164  1
  N  N68  1  0.88896051  0.87182421  0.32871688  1
  N  N69  1  0.75028970  0.77449760  0.08802549  1
  N  N70  1  0.55588207  0.87182374  0.82871815  1
  N  N71  1  0.44305397  0.76128502  0.58553367  1
