# generated using pymatgen
data_Al17BN18
_symmetry_space_group_name_H-M   'P 1'
_cell_length_a   9.34389181
_cell_length_b   9.34067603
_cell_length_c   10.20888011
_cell_angle_alpha   89.72194419
_cell_angle_beta   89.97341857
_cell_angle_gamma   59.92898369
_symmetry_Int_Tables_number   1
_chemical_formula_structural   Al17BN18
_chemical_formula_sum   'Al34 B2 N36'
_cell_volume   771.07634397
_cell_formula_units_Z   2
loop_
 _symmetry_equiv_pos_site_id
 _symmetry_equiv_pos_as_xyz
  1  'x, y, z'
loop_
 _atom_site_type_symbol
 _atom_site_label
 _atom_site_symmetry_multiplicity
 _atom_site_fract_x
 _atom_site_fract_y
 _atom_site_fract_z
 _atom_site_occupancy
  Al  Al0  1  0.11165699  0.09547148  0.39073755  1
  Al  Al1  1  0.23058038  0.19294737  0.13688940  1
  Al  Al2  1  0.77726118  0.09767235  0.89566603  1
  Al  Al3  1  0.89317393  0.19285739  0.63674080  1
  Al  Al4  1  0.44218068  0.09681438  0.39573184  1
  Al  Al5  1  0.55980140  0.19688767  0.14207087  1
  Al  Al6  1  0.10846208  0.09629100  0.89074027  1
  Al  Al7  1  0.22309707  0.19911189  0.64292339  1
  Al  Al8  1  0.78097061  0.08490750  0.38271617  1
  Al  Al9  1  0.89342400  0.20036378  0.14349768  1
  Al  Al10  1  0.45044087  0.08537346  0.88311125  1
  Al  Al11  1  0.55994939  0.19647838  0.64261310  1
  Al  Al12  1  0.10606349  0.43318503  0.31821988  1
  Al  Al13  1  0.22352604  0.53661772  0.08840691  1
  Al  Al14  1  0.77526084  0.43460615  0.81564688  1
  Al  Al15  1  0.89092093  0.54534048  0.56372653  1
  Al  Al16  1  0.44773281  0.41855458  0.38762877  1
  Al  Al17  1  0.56442665  0.53907843  0.07014046  1
  Al  Al18  1  0.10710713  0.43477454  0.81931216  1
  Al  Al19  1  0.21484277  0.53990054  0.58080279  1
  Al  Al20  1  0.77365599  0.43531425  0.32005780  1
  Al  Al21  1  0.88021173  0.54537196  0.06401208  1
  Al  Al22  1  0.44643326  0.42059873  0.88546810  1
  Al  Al23  1  0.56080487  0.53392063  0.57228499  1
  Al  Al24  1  0.10252943  0.76864660  0.37672654  1
  Al  Al25  1  0.23232450  0.87377150  0.14146679  1
  Al  Al26  1  0.78602721  0.76554875  0.81486454  1
  Al  Al27  1  0.43910723  0.76755706  0.39571468  1
  Al  Al28  1  0.11132613  0.76509797  0.89503773  1
  Al  Al29  1  0.21184654  0.87308728  0.64208011  1
  Al  Al30  1  0.76578899  0.76570974  0.31373099  1
  Al  Al31  1  0.88445968  0.87585602  0.10722873  1
  Al  Al32  1  0.44470926  0.76955576  0.87475792  1
  Al  Al33  1  0.55660385  0.87505897  0.60951066  1
  B  B34  1  0.89031954  0.87069499  0.59623473  1
  B  B35  1  0.55560241  0.87071962  0.09615479  1
  N  N36  1  0.22642915  0.19888340  0.32576559  1
  N  N37  1  0.11083579  0.09481451  0.07771870  1
  N  N38  1  0.89028930  0.19991989  0.82543938  1
  N  N39  1  0.79128637  0.06262590  0.57827127  1
  N  N40  1  0.55650059  0.20046398  0.32829980  1
  N  N41  1  0.46254862  0.06300524  0.07829978  1
  N  N42  1  0.22516318  0.20023888  0.83335234  1
  N  N43  1  0.11131620  0.09358263  0.57753494  1
  N  N44  1  0.89079952  0.20050993  0.33359097  1
  N  N45  1  0.77398882  0.10689082  0.08130954  1
  N  N46  1  0.55917454  0.20084193  0.82882862  1
  N  N47  1  0.43671139  0.10554247  0.58136577  1
  N  N48  1  0.21915649  0.53814530  0.37438047  1
  N  N49  1  0.10402006  0.43383792  0.12777759  1
  N  N50  1  0.88620021  0.54237952  0.87795836  1
  N  N51  1  0.77870582  0.43376379  0.62716833  1
  N  N52  1  0.55841981  0.53704175  0.37759064  1
  N  N53  1  0.44991870  0.41804218  0.08254492  1
  N  N54  1  0.22134258  0.54009530  0.86291736  1
  N  N55  1  0.10470802  0.43071045  0.62966736  1
  N  N56  1  0.88682539  0.54298693  0.37787670  1
  N  N57  1  0.77867266  0.43290573  0.13176054  1
  N  N58  1  0.55995749  0.53794916  0.87877975  1
  N  N59  1  0.44920656  0.41693417  0.58313541  1
  N  N60  1  0.22365263  0.87347277  0.32813191  1
  N  N61  1  0.12336748  0.76277456  0.08557921  1
  N  N62  1  0.88518051  0.87036441  0.88934396  1
  N  N63  1  0.80211961  0.77472078  0.62142853  1
  N  N64  1  0.56130898  0.87014531  0.38719387  1
  N  N65  1  0.45770942  0.78182174  0.07677655  1
  N  N66  1  0.21861347  0.87447576  0.82858116  1
  N  N67  1  0.07771392  0.78149589  0.57701522  1
  N  N68  1  0.88952945  0.87264674  0.31032363  1
  N  N69  1  0.74021092  0.77500078  0.12070270  1
  N  N70  1  0.55505462  0.87287834  0.81080121  1
  N  N71  1  0.43186273  0.76208600  0.58669717  1
