# generated using pymatgen
data_Al17BN18
_symmetry_space_group_name_H-M   'P 1'
_cell_length_a   9.33165019
_cell_length_b   9.31981960
_cell_length_c   10.12892885
_cell_angle_alpha   89.72521977
_cell_angle_beta   89.96503569
_cell_angle_gamma   59.99745011
_symmetry_Int_Tables_number   1
_chemical_formula_structural   Al17BN18
_chemical_formula_sum   'Al34 B2 N36'
_cell_volume   762.85681205
_cell_formula_units_Z   2
loop_
 _symmetry_equiv_pos_site_id
 _symmetry_equiv_pos_as_xyz
  1  'x, y, z'
loop_
 _atom_site_type_symbol
 _atom_site_label
 _atom_site_symmetry_multiplicity
 _atom_site_fract_x
 _atom_site_fract_y
 _atom_site_fract_z
 _atom_site_occupancy
  Al  Al0  1  0.11330924  0.09325304  0.38944342  1
  Al  Al1  1  0.22727261  0.19868864  0.13426953  1
  Al  Al2  1  0.77727530  0.09664889  0.89376074  1
  Al  Al3  1  0.89316687  0.19349268  0.63289380  1
  Al  Al4  1  0.44284342  0.09690610  0.39402936  1
  Al  Al5  1  0.55820903  0.19926759  0.13970274  1
  Al  Al6  1  0.11038629  0.09268620  0.88876195  1
  Al  Al7  1  0.21977308  0.20740194  0.64150883  1
  Al  Al8  1  0.78030825  0.08490061  0.38104867  1
  Al  Al9  1  0.89362700  0.19974101  0.14096151  1
  Al  Al10  1  0.45182302  0.08426587  0.88042944  1
  Al  Al11  1  0.55859885  0.19944010  0.63962092  1
  Al  Al12  1  0.11515732  0.42496715  0.37437633  1
  Al  Al13  1  0.22562386  0.53844342  0.13993954  1
  Al  Al14  1  0.78225930  0.42926624  0.81672625  1
  Al  Al15  1  0.88605178  0.54737269  0.56344562  1
  Al  Al16  1  0.44596738  0.42695602  0.38905453  1
  Al  Al17  1  0.55126795  0.54623539  0.13428029  1
  Al  Al18  1  0.11652189  0.42666141  0.88175406  1
  Al  Al19  1  0.21462717  0.54300419  0.63602550  1
  Al  Al20  1  0.77849976  0.43186532  0.32164054  1
  Al  Al21  1  0.87563111  0.54694636  0.06405023  1
  Al  Al22  1  0.44536816  0.42611684  0.88888542  1
  Al  Al23  1  0.54587376  0.54178818  0.63947482  1
  Al  Al24  1  0.10438368  0.76486909  0.37877174  1
  Al  Al25  1  0.23003512  0.87444292  0.14025638  1
  Al  Al26  1  0.78595601  0.76526139  0.81297471  1
  Al  Al27  1  0.44230708  0.76006614  0.39488736  1
  Al  Al28  1  0.11497056  0.75951080  0.89460574  1
  Al  Al29  1  0.21216938  0.87468244  0.64011985  1
  Al  Al30  1  0.76513553  0.76690596  0.31283781  1
  Al  Al31  1  0.88589934  0.87422972  0.10510672  1
  Al  Al32  1  0.44809225  0.76422159  0.87933060  1
  Al  Al33  1  0.55568876  0.87530617  0.60619695  1
  B  B34  1  0.89081836  0.86975532  0.59476239  1
  B  B35  1  0.55544843  0.87075062  0.09482768  1
  N  N36  1  0.22494717  0.20184737  0.32290801  1
  N  N37  1  0.11153514  0.09377428  0.07676898  1
  N  N38  1  0.89233678  0.19723553  0.82414224  1
  N  N39  1  0.79197589  0.06176013  0.57732693  1
  N  N40  1  0.55487386  0.20456198  0.32831454  1
  N  N41  1  0.46181677  0.06237145  0.07727917  1
  N  N42  1  0.22381924  0.20299347  0.83141400  1
  N  N43  1  0.11266950  0.09416353  0.57725176  1
  N  N44  1  0.89157076  0.19956641  0.33378797  1
  N  N45  1  0.77344610  0.10583549  0.08065857  1
  N  N46  1  0.55769749  0.20395948  0.82816780  1
  N  N47  1  0.43649745  0.10616255  0.58133554  1
  N  N48  1  0.22418906  0.53948108  0.32883809  1
  N  N49  1  0.11431660  0.42772420  0.08245373  1
  N  N50  1  0.88383225  0.54423932  0.87485597  1
  N  N51  1  0.77809564  0.43198925  0.62139773  1
  N  N52  1  0.54658487  0.54484792  0.32601353  1
  N  N53  1  0.44589655  0.42490656  0.07756247  1
  N  N54  1  0.22315677  0.54146955  0.82497839  1
  N  N55  1  0.11350595  0.42557581  0.58158700  1
  N  N56  1  0.88367078  0.54608149  0.37391132  1
  N  N57  1  0.78098546  0.42921811  0.12661539  1
  N  N58  1  0.55111212  0.54029342  0.83164782  1
  N  N59  1  0.44449259  0.42535293  0.57788017  1
  N  N60  1  0.22366296  0.87261663  0.32838895  1
  N  N61  1  0.12643159  0.75719831  0.08232191  1
  N  N62  1  0.88736956  0.86832552  0.88813663  1
  N  N63  1  0.80212273  0.77444706  0.61991849  1
  N  N64  1  0.56028944  0.86966056  0.38745253  1
  N  N65  1  0.45884321  0.77762549  0.07565177  1
  N  N66  1  0.22139638  0.87168163  0.82827312  1
  N  N67  1  0.08027766  0.77728437  0.57620678  1
  N  N68  1  0.89070891  0.87182926  0.31028953  1
  N  N69  1  0.73934574  0.77541154  0.11953762  1
  N  N70  1  0.55477615  0.87121790  0.81040103  1
  N  N71  1  0.43253487  0.75871125  0.58212569  1
