# generated using pymatgen
data_Al17BN18
_symmetry_space_group_name_H-M   'P 1'
_cell_length_a   9.33803110
_cell_length_b   9.32558757
_cell_length_c   10.23700870
_cell_angle_alpha   89.77403044
_cell_angle_beta   89.99999957
_cell_angle_gamma   59.95586772
_symmetry_Int_Tables_number   1
_chemical_formula_structural   Al17BN18
_chemical_formula_sum   'Al34 B2 N36'
_cell_volume   771.68029721
_cell_formula_units_Z   2
loop_
 _symmetry_equiv_pos_site_id
 _symmetry_equiv_pos_as_xyz
  1  'x, y, z'
loop_
 _atom_site_type_symbol
 _atom_site_label
 _atom_site_symmetry_multiplicity
 _atom_site_fract_x
 _atom_site_fract_y
 _atom_site_fract_z
 _atom_site_occupancy
  Al  Al0  1  0.11218655  0.09598033  0.39097370  1
  Al  Al1  1  0.23042280  0.19297865  0.13710695  1
  Al  Al2  1  0.77731307  0.09744220  0.89640297  1
  Al  Al3  1  0.89326521  0.19297874  0.63710699  1
  Al  Al4  1  0.44191152  0.09744228  0.39640278  1
  Al  Al5  1  0.56043956  0.19583970  0.14193553  1
  Al  Al6  1  0.10849954  0.09598033  0.89097380  1
  Al  Al7  1  0.22284699  0.20008808  0.64366596  1
  Al  Al8  1  0.78151034  0.08501427  0.38405127  1
  Al  Al9  1  0.89373193  0.20008805  0.14366610  1
  Al  Al10  1  0.45014249  0.08501414  0.88405119  1
  Al  Al11  1  0.56038770  0.19583929  0.64193598  1
  Al  Al12  1  0.10641421  0.43468239  0.31541900  1
  Al  Al13  1  0.22464032  0.53267063  0.07168884  1
  Al  Al14  1  0.77556899  0.43468262  0.81541884  1
  Al  Al15  1  0.89141125  0.54546006  0.56448679  1
  Al  Al16  1  0.44651634  0.42381649  0.36062620  1
  Al  Al17  1  0.56315849  0.53654466  0.07070806  1
  Al  Al18  1  0.10631807  0.43500268  0.82023823  1
  Al  Al19  1  0.21696482  0.53654339  0.57070813  1
  Al  Al20  1  0.77534495  0.43500310  0.32023834  1
  Al  Al21  1  0.87979415  0.54546057  0.06448696  1
  Al  Al22  1  0.44633506  0.42381656  0.86062731  1
  Al  Al23  1  0.55935433  0.53267128  0.57168939  1
  Al  Al24  1  0.10229250  0.76970426  0.37671224  1
  Al  Al25  1  0.23237626  0.87223859  0.14150130  1
  Al  Al26  1  0.78523960  0.76572766  0.81417530  1
  Al  Al27  1  0.43925237  0.76828391  0.39666986  1
  Al  Al28  1  0.10913037  0.76828355  0.89666941  1
  Al  Al29  1  0.21205128  0.87223933  0.64150102  1
  Al  Al30  1  0.76569940  0.76572874  0.31417522  1
  Al  Al31  1  0.88555416  0.87520362  0.11014051  1
  Al  Al32  1  0.44466898  0.76970556  0.87671189  1
  Al  Al33  1  0.55591025  0.87520383  0.61014035  1
  B  B34  1  0.89058875  0.87039185  0.59652058  1
  B  B35  1  0.55568596  0.87039251  0.09652058  1
  N  N36  1  0.22652933  0.19985635  0.32552309  1
  N  N37  1  0.11120100  0.09405686  0.07758641  1
  N  N38  1  0.89028072  0.19985661  0.82552312  1
  N  N39  1  0.79141463  0.06288932  0.57832788  1
  N  N40  1  0.55839799  0.19795802  0.32933430  1
  N  N41  1  0.46236254  0.06288980  0.07832783  1
  N  N42  1  0.22500984  0.20013758  0.83346952  1
  N  N43  1  0.11140853  0.09405731  0.57758625  1
  N  N44  1  0.89151899  0.20013805  0.33346957  1
  N  N45  1  0.77459596  0.10598234  0.08129096  1
  N  N46  1  0.56031095  0.19795812  0.82933464  1
  N  N47  1  0.43608854  0.10598240  0.58129082  1
  N  N48  1  0.21956028  0.53703872  0.38022747  1
  N  N49  1  0.10405328  0.43433395  0.12738780  1
  N  N50  1  0.88552421  0.54282761  0.87856278  1
  N  N51  1  0.77827837  0.43433403  0.62738775  1
  N  N52  1  0.55975714  0.53636676  0.37945095  1
  N  N53  1  0.44841467  0.42225443  0.10222723  1
  N  N54  1  0.22054312  0.53636603  0.87945052  1
  N  N55  1  0.10525865  0.43310733  0.63241886  1
  N  N56  1  0.88831404  0.54282809  0.37856266  1
  N  N57  1  0.77830015  0.43310745  0.13241912  1
  N  N58  1  0.56006732  0.53704006  0.88022766  1
  N  N59  1  0.44599797  0.42225386  0.60222801  1
  N  N60  1  0.22440759  0.87309636  0.32801552  1
  N  N61  1  0.12235337  0.76237191  0.08594874  1
  N  N62  1  0.88483307  0.87064048  0.88663110  1
  N  N63  1  0.80113263  0.77518456  0.62144810  1
  N  N64  1  0.56119314  0.87064057  0.38663118  1
  N  N65  1  0.45806598  0.78104993  0.07648749  1
  N  N66  1  0.21916208  0.87309674  0.82801524  1
  N  N67  1  0.07755120  0.78104931  0.57648746  1
  N  N68  1  0.88969910  0.87264316  0.31091908  1
  N  N69  1  0.74034941  0.77518514  0.12144813  1
  N  N70  1  0.55432527  0.87264302  0.81091912  1
  N  N71  1  0.43194127  0.76237268  0.58594915  1
