# generated using pymatgen
data_Al17BN18
_symmetry_space_group_name_H-M   'P 1'
_cell_length_a   9.33918633
_cell_length_b   9.32132071
_cell_length_c   10.15843945
_cell_angle_alpha   89.46894685
_cell_angle_beta   89.92580560
_cell_angle_gamma   59.87717346
_symmetry_Int_Tables_number   1
_chemical_formula_structural   Al17BN18
_chemical_formula_sum   'Al34 B2 N36'
_cell_volume   764.86245568
_cell_formula_units_Z   2
loop_
 _symmetry_equiv_pos_site_id
 _symmetry_equiv_pos_as_xyz
  1  'x, y, z'
loop_
 _atom_site_type_symbol
 _atom_site_label
 _atom_site_symmetry_multiplicity
 _atom_site_fract_x
 _atom_site_fract_y
 _atom_site_fract_z
 _atom_site_occupancy
  Al  Al0  1  0.10652223  0.09227910  0.31976811  1
  Al  Al1  1  0.22899189  0.19967074  0.12782271  1
  Al  Al2  1  0.77361834  0.09318252  0.89873570  1
  Al  Al3  1  0.89379107  0.20431185  0.57391648  1
  Al  Al4  1  0.44062270  0.09754584  0.39775695  1
  Al  Al5  1  0.56160632  0.19189109  0.14644115  1
  Al  Al6  1  0.10836300  0.09223615  0.82618819  1
  Al  Al7  1  0.22656093  0.20562243  0.64093567  1
  Al  Al8  1  0.78069709  0.08008928  0.38767848  1
  Al  Al9  1  0.88946216  0.21352552  0.07124442  1
  Al  Al10  1  0.45152414  0.08242877  0.89026122  1
  Al  Al11  1  0.56590368  0.19111976  0.64456580  1
  Al  Al12  1  0.10833162  0.43417291  0.31885230  1
  Al  Al13  1  0.22496826  0.53979451  0.06686446  1
  Al  Al14  1  0.77577308  0.43107958  0.81980871  1
  Al  Al15  1  0.89235012  0.54457325  0.56893976  1
  Al  Al16  1  0.44131331  0.43186993  0.32265603  1
  Al  Al17  1  0.55660259  0.54262131  0.07292315  1
  Al  Al18  1  0.10756344  0.43457072  0.82759621  1
  Al  Al19  1  0.21753795  0.54216566  0.57266723  1
  Al  Al20  1  0.77784497  0.42703453  0.32222655  1
  Al  Al21  1  0.87804195  0.54744667  0.06842065  1
  Al  Al22  1  0.44389052  0.43205450  0.82173642  1
  Al  Al23  1  0.55361262  0.53842340  0.56712015  1
  Al  Al24  1  0.11548653  0.75875687  0.31492241  1
  Al  Al25  1  0.22825414  0.87416641  0.06880866  1
  Al  Al26  1  0.78247447  0.76510446  0.82123079  1
  Al  Al27  1  0.44575999  0.76646263  0.32870192  1
  Al  Al28  1  0.10488557  0.76594451  0.82743366  1
  Al  Al29  1  0.21349305  0.87500724  0.56982605  1
  Al  Al30  1  0.76849783  0.76365157  0.32274079  1
  Al  Al31  1  0.88682568  0.87215236  0.10608078  1
  Al  Al32  1  0.44268490  0.75976319  0.81437575  1
  Al  Al33  1  0.55888744  0.87165297  0.60201493  1
  B  B34  1  0.89278121  0.86924004  0.61034887  1
  B  B35  1  0.55486721  0.86930914  0.11040078  1
  N  N36  1  0.22735540  0.20270797  0.32928118  1
  N  N37  1  0.10677087  0.09177093  0.12947155  1
  N  N38  1  0.88896190  0.21070505  0.88038676  1
  N  N39  1  0.79523692  0.05846621  0.58596067  1
  N  N40  1  0.55851084  0.19784621  0.33487923  1
  N  N41  1  0.46252500  0.05989567  0.08486381  1
  N  N42  1  0.22552842  0.20452733  0.85065164  1
  N  N43  1  0.11016370  0.09207402  0.63531478  1
  N  N44  1  0.88912298  0.20657377  0.38535383  1
  N  N45  1  0.77197605  0.10281905  0.08640847  1
  N  N46  1  0.55957258  0.19781927  0.83310794  1
  N  N47  1  0.43931310  0.10493167  0.58329169  1
  N  N48  1  0.22137264  0.53950984  0.38496225  1
  N  N49  1  0.10413996  0.43906762  0.12655783  1
  N  N50  1  0.88485981  0.54252260  0.88122805  1
  N  N51  1  0.77662804  0.43176461  0.63043765  1
  N  N52  1  0.55494968  0.53881930  0.37901775  1
  N  N53  1  0.44300040  0.43018641  0.13146472  1
  N  N54  1  0.22408711  0.54005103  0.87966301  1
  N  N55  1  0.10729291  0.43482976  0.63584488  1
  N  N56  1  0.88872154  0.53930554  0.38119685  1
  N  N57  1  0.77721262  0.43041897  0.13423862  1
  N  N58  1  0.55527501  0.54021948  0.88461504  1
  N  N59  1  0.44384361  0.42984526  0.63055738  1
  N  N60  1  0.22025994  0.87191308  0.38190028  1
  N  N61  1  0.12594445  0.75635957  0.12785757  1
  N  N62  1  0.89280855  0.86318849  0.89558731  1
  N  N63  1  0.80213454  0.77346357  0.62583997  1
  N  N64  1  0.55970576  0.86468717  0.39684587  1
  N  N65  1  0.45691913  0.77825273  0.13118101  1
  N  N66  1  0.22454469  0.87026015  0.88164994  1
  N  N67  1  0.08231593  0.77712662  0.63062334  1
  N  N68  1  0.88827286  0.87091019  0.32006324  1
  N  N69  1  0.74015606  0.77428786  0.12718089  1
  N  N70  1  0.55595101  0.87335051  0.82016440  1
  N  N71  1  0.43530492  0.75633996  0.62690179  1
