# generated using pymatgen
data_Al17BN18
_symmetry_space_group_name_H-M   'P 1'
_cell_length_a   9.33577347
_cell_length_b   9.33145639
_cell_length_c   10.00930946
_cell_angle_alpha   89.90667564
_cell_angle_beta   89.93322800
_cell_angle_gamma   60.03542077
_symmetry_Int_Tables_number   1
_chemical_formula_structural   Al17BN18
_chemical_formula_sum   'Al34 B2 N36'
_cell_volume   755.42050980
_cell_formula_units_Z   2
loop_
 _symmetry_equiv_pos_site_id
 _symmetry_equiv_pos_as_xyz
  1  'x, y, z'
loop_
 _atom_site_type_symbol
 _atom_site_label
 _atom_site_symmetry_multiplicity
 _atom_site_fract_x
 _atom_site_fract_y
 _atom_site_fract_z
 _atom_site_occupancy
  Al  Al0  1  0.11109481  0.09531632  0.30833801  1
  Al  Al1  1  0.23086444  0.19573985  0.06040872  1
  Al  Al2  1  0.78708164  0.08514465  0.80770926  1
  Al  Al3  1  0.89038138  0.20146244  0.56110775  1
  Al  Al4  1  0.44617586  0.09183517  0.37468407  1
  Al  Al5  1  0.55583845  0.19349911  0.13086491  1
  Al  Al6  1  0.11192090  0.09309265  0.81206079  1
  Al  Al7  1  0.21026199  0.21235416  0.56223687  1
  Al  Al8  1  0.78634232  0.08895608  0.32278009  1
  Al  Al9  1  0.88808340  0.20438208  0.06031643  1
  Al  Al10  1  0.44374011  0.09158337  0.81002808  1
  Al  Al11  1  0.56142635  0.20398815  0.61314114  1
  Al  Al12  1  0.11130301  0.42778089  0.30793406  1
  Al  Al13  1  0.22156352  0.54000612  0.05926336  1
  Al  Al14  1  0.77661067  0.42963150  0.81107176  1
  Al  Al15  1  0.89098327  0.54338596  0.55879698  1
  Al  Al16  1  0.43978565  0.43527907  0.31332783  1
  Al  Al17  1  0.55811063  0.54267607  0.06161456  1
  Al  Al18  1  0.11029378  0.42871592  0.81277419  1
  Al  Al19  1  0.21468744  0.54463452  0.56024221  1
  Al  Al20  1  0.77873455  0.42762092  0.31011256  1
  Al  Al21  1  0.88156742  0.54465515  0.06177639  1
  Al  Al22  1  0.44233064  0.43365939  0.81041296  1
  Al  Al23  1  0.55384744  0.54022594  0.55667421  1
  Al  Al24  1  0.10844051  0.76231599  0.31474450  1
  Al  Al25  1  0.22570554  0.87330673  0.06217413  1
  Al  Al26  1  0.78393971  0.76229526  0.80340392  1
  Al  Al27  1  0.44677503  0.76522473  0.31646042  1
  Al  Al28  1  0.10622121  0.76408787  0.80749056  1
  Al  Al29  1  0.21473907  0.87386000  0.55818779  1
  Al  Al30  1  0.77442491  0.76507407  0.32358869  1
  Al  Al31  1  0.88112832  0.87437999  0.06313267  1
  Al  Al32  1  0.44293978  0.75962806  0.80616221  1
  Al  Al33  1  0.56207127  0.86591738  0.58693534  1
  B  B34  1  0.89317681  0.86800853  0.55678569  1
  B  B35  1  0.55382266  0.87541828  0.10748060  1
  N  N36  1  0.21602826  0.20887161  0.37118704  1
  N  N37  1  0.11070408  0.09483083  0.11881995  1
  N  N38  1  0.88836357  0.20507845  0.86908167  1
  N  N39  1  0.79709597  0.06576731  0.61040300  1
  N  N40  1  0.55496592  0.20541865  0.33665875  1
  N  N41  1  0.46026163  0.05884260  0.10637779  1
  N  N42  1  0.22366793  0.20480986  0.86896572  1
  N  N43  1  0.11008522  0.09399995  0.62231370  1
  N  N44  1  0.89088852  0.20705425  0.37205289  1
  N  N45  1  0.78576306  0.08941655  0.12782880  1
  N  N46  1  0.55863269  0.20454972  0.82018487  1
  N  N47  1  0.43752849  0.10067912  0.59464431  1
  N  N48  1  0.21956210  0.53977281  0.37072519  1
  N  N49  1  0.11196780  0.42595091  0.11736895  1
  N  N50  1  0.88743450  0.54189473  0.87094740  1
  N  N51  1  0.77667906  0.42970124  0.61933142  1
  N  N52  1  0.55623614  0.54012029  0.36687655  1
  N  N53  1  0.44279488  0.43093981  0.11941878  1
  N  N54  1  0.22081960  0.54168483  0.86846740  1
  N  N55  1  0.10908277  0.42970724  0.62276009  1
  N  N56  1  0.89012313  0.53854928  0.36822016  1
  N  N57  1  0.77878522  0.42630722  0.12006637  1
  N  N58  1  0.55513513  0.54046797  0.87231386  1
  N  N59  1  0.43871904  0.43649713  0.61568964  1
  N  N60  1  0.22153195  0.87346338  0.36731973  1
  N  N61  1  0.10855126  0.76164129  0.12323918  1
  N  N62  1  0.88973129  0.87042955  0.87587430  1
  N  N63  1  0.80099320  0.76970000  0.61066082  1
  N  N64  1  0.55930015  0.86489104  0.38765446  1
  N  N65  1  0.45975646  0.77550696  0.12014869  1
  N  N66  1  0.22232023  0.87019691  0.87115829  1
  N  N67  1  0.08640387  0.77413825  0.61304744  1
  N  N68  1  0.89133824  0.87029825  0.39063243  1
  N  N69  1  0.74837283  0.77664313  0.12544076  1
  N  N70  1  0.55929128  0.86837886  0.81634076  1
  N  N71  1  0.43531599  0.75736610  0.61587957  1
