# generated using pymatgen
data_Al17BN18
_symmetry_space_group_name_H-M   'P 1'
_cell_length_a   9.31160601
_cell_length_b   9.30233533
_cell_length_c   10.09731127
_cell_angle_alpha   89.62945149
_cell_angle_beta   90.00000632
_cell_angle_gamma   59.96702932
_symmetry_Int_Tables_number   1
_chemical_formula_structural   Al17BN18
_chemical_formula_sum   'Al34 B2 N36'
_cell_volume   757.17533267
_cell_formula_units_Z   2
loop_
 _symmetry_equiv_pos_site_id
 _symmetry_equiv_pos_as_xyz
  1  'x, y, z'
loop_
 _atom_site_type_symbol
 _atom_site_label
 _atom_site_symmetry_multiplicity
 _atom_site_fract_x
 _atom_site_fract_y
 _atom_site_fract_z
 _atom_site_occupancy
  Al  Al0  1  0.11306286  0.09451899  0.38821393  1
  Al  Al1  1  0.22747168  0.19861409  0.13563380  1
  Al  Al2  1  0.77638508  0.09762418  0.89390053  1
  Al  Al3  1  0.89057961  0.19861441  0.63563381  1
  Al  Al4  1  0.44265700  0.09762467  0.39390041  1
  Al  Al5  1  0.55778663  0.19909426  0.13925198  1
  Al  Al6  1  0.10908473  0.09451818  0.88821391  1
  Al  Al7  1  0.22045258  0.20723113  0.64125380  1
  Al  Al8  1  0.78122644  0.08676653  0.38040779  1
  Al  Al9  1  0.88898174  0.20723115  0.14125375  1
  Al  Al10  1  0.44867385  0.08676649  0.88040797  1
  Al  Al11  1  0.55978541  0.19909466  0.63925182  1
  Al  Al12  1  0.11110100  0.42743701  0.38557075  1
  Al  Al13  1  0.22551857  0.53745045  0.14109114  1
  Al  Al14  1  0.77812969  0.42743682  0.88557085  1
  Al  Al15  1  0.89432916  0.53702868  0.63332635  1
  Al  Al16  1  0.44652098  0.42675797  0.38787217  1
  Al  Al17  1  0.55762030  0.54272258  0.13496375  1
  Al  Al18  1  0.10997856  0.42997400  0.88718390  1
  Al  Al19  1  0.21632480  0.54272204  0.63496376  1
  Al  Al20  1  0.77671414  0.42997487  0.38718396  1
  Al  Al21  1  0.88531038  0.53702809  0.13332610  1
  Al  Al22  1  0.44338853  0.42675746  0.88787210  1
  Al  Al23  1  0.55369864  0.53745112  0.64109114  1
  Al  Al24  1  0.10538664  0.76431962  0.37903960  1
  Al  Al25  1  0.22947902  0.87450189  0.13943140  1
  Al  Al26  1  0.78134130  0.77041914  0.81701446  1
  Al  Al27  1  0.44332338  0.75843341  0.39449470  1
  Al  Al28  1  0.11491087  0.75843216  0.89449450  1
  Al  Al29  1  0.21268511  0.87450206  0.63943112  1
  Al  Al30  1  0.76490527  0.77041856  0.31701378  1
  Al  Al31  1  0.88528094  0.87455040  0.10398650  1
  Al  Al32  1  0.44695997  0.76431924  0.87903953  1
  Al  Al33  1  0.55683510  0.87455178  0.60398663  1
  B  B34  1  0.89099880  0.87018470  0.59412527  1
  B  B35  1  0.55548278  0.87018471  0.09412506  1
  N  N36  1  0.22461500  0.20456276  0.32435786  1
  N  N37  1  0.10977724  0.09556651  0.07754212  1
  N  N38  1  0.88748876  0.20456253  0.82435788  1
  N  N39  1  0.79298113  0.06332045  0.57732085  1
  N  N40  1  0.55547566  0.20420440  0.32812461  1
  N  N41  1  0.46036461  0.06332043  0.07732105  1
  N  N42  1  0.22138381  0.20625641  0.83084043  1
  N  N43  1  0.11132176  0.09556677  0.57754209  1
  N  N44  1  0.88902571  0.20625707  0.33084033  1
  N  N45  1  0.77334943  0.10679475  0.08142558  1
  N  N46  1  0.55698680  0.20420400  0.82812447  1
  N  N47  1  0.43652147  0.10679574  0.58142555  1
  N  N48  1  0.22371793  0.53825578  0.33019096  1
  N  N49  1  0.11205208  0.42860240  0.07694062  1
  N  N50  1  0.88976888  0.53602171  0.82413222  1
  N  N51  1  0.77601289  0.42860292  0.57694067  1
  N  N52  1  0.55497889  0.54052467  0.32427814  1
  N  N53  1  0.44535468  0.42550658  0.07786343  1
  N  N54  1  0.22116406  0.54052366  0.82427809  1
  N  N55  1  0.11158879  0.42686479  0.57426612  1
  N  N56  1  0.89087682  0.53602155  0.32413198  1
  N  N57  1  0.77821365  0.42686479  0.07426622  1
  N  N58  1  0.55469373  0.53825549  0.83019101  1
  N  N59  1  0.44580626  0.42550698  0.57786350  1
  N  N60  1  0.22434312  0.87259499  0.32833767  1
  N  N61  1  0.12625833  0.75613803  0.08280845  1
  N  N62  1  0.88682786  0.86892097  0.89062137  1
  N  N63  1  0.80164002  0.77693306  0.61938043  1
  N  N64  1  0.56091766  0.86892179  0.39062139  1
  N  N65  1  0.45847592  0.77687053  0.07615927  1
  N  N66  1  0.21972844  0.87259445  0.82833740  1
  N  N67  1  0.08131989  0.77687034  0.57615934  1
  N  N68  1  0.89134615  0.87325299  0.31133597  1
  N  N69  1  0.73809340  0.77693258  0.11938001  1
  N  N70  1  0.55206641  0.87325336  0.81133613  1
  N  N71  1  0.43427019  0.75613895  0.58280861  1
