# generated using pymatgen
data_Al17BN18
_symmetry_space_group_name_H-M   'P 1'
_cell_length_a   9.33264943
_cell_length_b   9.31426475
_cell_length_c   10.09751617
_cell_angle_alpha   89.78001305
_cell_angle_beta   90.03580791
_cell_angle_gamma   59.96641012
_symmetry_Int_Tables_number   1
_chemical_formula_structural   Al17BN18
_chemical_formula_sum   'Al34 B2 N36'
_cell_volume   759.88267431
_cell_formula_units_Z   2
loop_
 _symmetry_equiv_pos_site_id
 _symmetry_equiv_pos_as_xyz
  1  'x, y, z'
loop_
 _atom_site_type_symbol
 _atom_site_label
 _atom_site_symmetry_multiplicity
 _atom_site_fract_x
 _atom_site_fract_y
 _atom_site_fract_z
 _atom_site_occupancy
  Al  Al0  1  0.11361659  0.09361612  0.38820034  1
  Al  Al1  1  0.22635267  0.19965876  0.13555783  1
  Al  Al2  1  0.77708827  0.09607130  0.89324293  1
  Al  Al3  1  0.89102761  0.19842542  0.63387031  1
  Al  Al4  1  0.44380093  0.09603536  0.39314165  1
  Al  Al5  1  0.55808086  0.19942816  0.13873379  1
  Al  Al6  1  0.11029020  0.09354769  0.88817414  1
  Al  Al7  1  0.21958602  0.20802151  0.64112780  1
  Al  Al8  1  0.78095540  0.08444592  0.37974051  1
  Al  Al9  1  0.88973179  0.20675849  0.14046281  1
  Al  Al10  1  0.45095564  0.08492035  0.87979864  1
  Al  Al11  1  0.55905814  0.19954823  0.63870755  1
  Al  Al12  1  0.11834073  0.42356916  0.38409419  1
  Al  Al13  1  0.22558299  0.53757741  0.14082756  1
  Al  Al14  1  0.77663847  0.42443588  0.87352319  1
  Al  Al15  1  0.88652345  0.55058416  0.56548873  1
  Al  Al16  1  0.44604426  0.42664243  0.38819126  1
  Al  Al17  1  0.55683590  0.54294635  0.13481803  1
  Al  Al18  1  0.11780343  0.42618966  0.88648440  1
  Al  Al19  1  0.21565459  0.54277419  0.63585802  1
  Al  Al20  1  0.77408462  0.42726983  0.37829856  1
  Al  Al21  1  0.87702485  0.55044545  0.06519495  1
  Al  Al22  1  0.44401369  0.42647575  0.88819735  1
  Al  Al23  1  0.55145713  0.53863333  0.63952930  1
  Al  Al24  1  0.10472865  0.76426710  0.37821297  1
  Al  Al25  1  0.22952702  0.87454890  0.13901828  1
  Al  Al26  1  0.78595822  0.76509672  0.81238079  1
  Al  Al27  1  0.44271406  0.75979388  0.39385117  1
  Al  Al28  1  0.11480094  0.75897489  0.89397746  1
  Al  Al29  1  0.21228056  0.87483690  0.63912983  1
  Al  Al30  1  0.76632829  0.76499548  0.31209419  1
  Al  Al31  1  0.88620789  0.87516328  0.10534198  1
  Al  Al32  1  0.44765777  0.76462327  0.87855026  1
  Al  Al33  1  0.55488676  0.87570207  0.60599717  1
  B  B34  1  0.89105164  0.87084586  0.59440812  1
  B  B35  1  0.55417325  0.87143750  0.09443795  1
  N  N36  1  0.22520896  0.20300783  0.32395174  1
  N  N37  1  0.11040040  0.09506490  0.07709864  1
  N  N38  1  0.88993728  0.20098078  0.82279728  1
  N  N39  1  0.79272079  0.06239703  0.57682227  1
  N  N40  1  0.55544783  0.20414130  0.32794012  1
  N  N41  1  0.46068937  0.06304252  0.07717502  1
  N  N42  1  0.22313019  0.20434523  0.83051100  1
  N  N43  1  0.11169206  0.09523976  0.57704350  1
  N  N44  1  0.89023668  0.20285982  0.33057912  1
  N  N45  1  0.77368488  0.10599987  0.08078191  1
  N  N46  1  0.55749519  0.20405718  0.82785392  1
  N  N47  1  0.43635478  0.10646885  0.58092123  1
  N  N48  1  0.22461532  0.53850663  0.32944608  1
  N  N49  1  0.11572196  0.42701940  0.07897626  1
  N  N50  1  0.88637657  0.54486973  0.86994312  1
  N  N51  1  0.77377863  0.42765175  0.58263251  1
  N  N52  1  0.55177923  0.54183667  0.32405870  1
  N  N53  1  0.44514507  0.42552777  0.07765518  1
  N  N54  1  0.22266061  0.54069803  0.82434810  1
  N  N55  1  0.11551348  0.42517604  0.57647465  1
  N  N56  1  0.88684546  0.54510153  0.37027035  1
  N  N57  1  0.77601517  0.42525338  0.08070796  1
  N  N58  1  0.55239637  0.53930483  0.82880283  1
  N  N59  1  0.44452643  0.42577251  0.57765670  1
  N  N60  1  0.22388859  0.87224647  0.32788727  1
  N  N61  1  0.12621695  0.75628374  0.08221736  1
  N  N62  1  0.88754388  0.86863729  0.88699156  1
  N  N63  1  0.80164774  0.77595777  0.61935486  1
  N  N64  1  0.56111000  0.86871254  0.38669526  1
  N  N65  1  0.45865289  0.77737618  0.07573023  1
  N  N66  1  0.22083998  0.87199886  0.82803155  1
  N  N67  1  0.08047403  0.77702861  0.57596629  1
  N  N68  1  0.89113715  0.87144293  0.30974492  1
  N  N69  1  0.73859970  0.77641647  0.11886831  1
  N  N70  1  0.55443368  0.87155149  0.81008126  1
  N  N71  1  0.43335030  0.75745642  0.58188206  1
