# generated using pymatgen
data_Al17BN18
_symmetry_space_group_name_H-M   'P 1'
_cell_length_a   9.29832959
_cell_length_b   9.30055343
_cell_length_c   9.94037802
_cell_angle_alpha   89.96804902
_cell_angle_beta   90.00000521
_cell_angle_gamma   60.00791552
_symmetry_Int_Tables_number   1
_chemical_formula_structural   Al17BN18
_chemical_formula_sum   'Al34 B2 N36'
_cell_volume   744.52931992
_cell_formula_units_Z   2
loop_
 _symmetry_equiv_pos_site_id
 _symmetry_equiv_pos_as_xyz
  1  'x, y, z'
loop_
 _atom_site_type_symbol
 _atom_site_label
 _atom_site_symmetry_multiplicity
 _atom_site_fract_x
 _atom_site_fract_y
 _atom_site_fract_z
 _atom_site_occupancy
  Al  Al0  1  0.11140050  0.09419032  0.29483929  1
  Al  Al1  1  0.22548605  0.20047793  0.04493571  1
  Al  Al2  1  0.78044571  0.08888551  0.79056937  1
  Al  Al3  1  0.89070253  0.20047850  0.54493561  1
  Al  Al4  1  0.44733618  0.08888543  0.29056931  1
  Al  Al5  1  0.55884935  0.19950067  0.04520849  1
  Al  Al6  1  0.11107675  0.09419049  0.79483935  1
  Al  Al7  1  0.22431352  0.20438846  0.54499325  1
  Al  Al8  1  0.77890067  0.09180460  0.30190570  1
  Al  Al9  1  0.88796512  0.20438827  0.04499327  1
  Al  Al10  1  0.44596184  0.09180497  0.80190579  1
  Al  Al11  1  0.55831602  0.19950082  0.54520849  1
  Al  Al12  1  0.11134467  0.42780418  0.29433034  1
  Al  Al13  1  0.22090448  0.54068124  0.04452123  1
  Al  Al14  1  0.77751815  0.42780429  0.79433030  1
  Al  Al15  1  0.88983175  0.54421099  0.54481697  1
  Al  Al16  1  0.44405652  0.42774209  0.29510764  1
  Al  Al17  1  0.55710655  0.54238877  0.04502514  1
  Al  Al18  1  0.11071453  0.42785756  0.79514310  1
  Al  Al19  1  0.21717116  0.54238923  0.54502518  1
  Al  Al20  1  0.77809535  0.42785742  0.29514308  1
  Al  Al21  1  0.88262413  0.54421037  0.04481684  1
  Al  Al22  1  0.44486737  0.42774233  0.79510768  1
  Al  Al23  1  0.55508111  0.54068078  0.54452110  1
  Al  Al24  1  0.10848016  0.76232788  0.30180719  1
  Al  Al25  1  0.22435640  0.87300358  0.04529778  1
  Al  Al26  1  0.77770783  0.76510659  0.79726063  1
  Al  Al27  1  0.44713085  0.76412787  0.29105683  1
  Al  Al28  1  0.10540697  0.76412847  0.79105666  1
  Al  Al29  1  0.21930622  0.87300439  0.54529777  1
  Al  Al30  1  0.77385150  0.76510654  0.29726058  1
  Al  Al31  1  0.88332125  0.87368405  0.04668421  1
  Al  Al32  1  0.44585803  0.76232784  0.80180705  1
  Al  Al33  1  0.55966073  0.87368439  0.54668425  1
  B  B34  1  0.88801752  0.87238238  0.54236675  1
  B  B35  1  0.55626679  0.87238194  0.04236679  1
  N  N36  1  0.22470949  0.20437268  0.35218105  1
  N  N37  1  0.11023090  0.09439677  0.10408158  1
  N  N38  1  0.88758525  0.20437270  0.85218098  1
  N  N39  1  0.79020931  0.06927007  0.59641413  1
  N  N40  1  0.55372801  0.20452120  0.35344147  1
  N  N41  1  0.45718752  0.06926963  0.09641423  1
  N  N42  1  0.22159927  0.20566320  0.85489184  1
  N  N43  1  0.11203899  0.09439731  0.60408162  1
  N  N44  1  0.88940504  0.20566294  0.35489165  1
  N  N45  1  0.77879560  0.09279197  0.10980942  1
  N  N46  1  0.55841785  0.20452139  0.85344147  1
  N  N47  1  0.44507900  0.09279203  0.60980965  1
  N  N48  1  0.22224999  0.53840229  0.35478007  1
  N  N49  1  0.11039196  0.42777193  0.10273293  1
  N  N50  1  0.88739361  0.54084441  0.85291762  1
  N  N51  1  0.77850277  0.42777221  0.60273291  1
  N  N52  1  0.55437695  0.54124507  0.35218060  1
  N  N53  1  0.44462599  0.42729183  0.10313290  1
  N  N54  1  0.22104432  0.54124577  0.85218075  1
  N  N55  1  0.11144284  0.42675776  0.60410283  1
  N  N56  1  0.88842901  0.54084445  0.35291770  1
  N  N57  1  0.77846631  0.42675742  0.10410285  1
  N  N58  1  0.55601443  0.53840215  0.85477995  1
  N  N59  1  0.44474848  0.42729189  0.60313294  1
  N  N60  1  0.22478052  0.87125377  0.35351808  1
  N  N61  1  0.10837640  0.76250151  0.10871265  1
  N  N62  1  0.88893800  0.87268142  0.85849656  1
  N  N63  1  0.78912623  0.77430024  0.60110235  1
  N  N64  1  0.55504669  0.87268135  0.35849659  1
  N  N65  1  0.45655387  0.77398977  0.09669402  1
  N  N66  1  0.22063197  0.87125387  0.85351807  1
  N  N67  1  0.08612260  0.77399032  0.59669392  1
  N  N68  1  0.88772494  0.87137811  0.37494054  1
  N  N69  1  0.75324004  0.77429979  0.10110233  1
  N  N70  1  0.55756316  0.87137816  0.87494056  1
  N  N71  1  0.44578840  0.76250149  0.60871247  1
