# generated using pymatgen
data_Al17BN18
_symmetry_space_group_name_H-M   'P 1'
_cell_length_a   9.32970017
_cell_length_b   9.32094386
_cell_length_c   10.03835372
_cell_angle_alpha   89.82391040
_cell_angle_beta   89.93710765
_cell_angle_gamma   60.06394024
_symmetry_Int_Tables_number   1
_chemical_formula_structural   Al17BN18
_chemical_formula_sum   'Al34 B2 N36'
_cell_volume   756.48105700
_cell_formula_units_Z   2
loop_
 _symmetry_equiv_pos_site_id
 _symmetry_equiv_pos_as_xyz
  1  'x, y, z'
loop_
 _atom_site_type_symbol
 _atom_site_label
 _atom_site_symmetry_multiplicity
 _atom_site_fract_x
 _atom_site_fract_y
 _atom_site_fract_z
 _atom_site_occupancy
  Al  Al0  1  0.11079298  0.09553255  0.30912353  1
  Al  Al1  1  0.22435476  0.19993082  0.06118014  1
  Al  Al2  1  0.78903639  0.08474742  0.80806177  1
  Al  Al3  1  0.88916892  0.20147699  0.56087671  1
  Al  Al4  1  0.44737559  0.09386384  0.38783179  1
  Al  Al5  1  0.55590493  0.19360752  0.13027422  1
  Al  Al6  1  0.11279169  0.09336519  0.81111740  1
  Al  Al7  1  0.21099373  0.21207133  0.56317111  1
  Al  Al8  1  0.78524890  0.08906162  0.32129942  1
  Al  Al9  1  0.88792030  0.20460392  0.06000850  1
  Al  Al10  1  0.45325133  0.08460018  0.85686388  1
  Al  Al11  1  0.55816620  0.20105689  0.62323857  1
  Al  Al12  1  0.11131195  0.42756610  0.30845939  1
  Al  Al13  1  0.22116114  0.54078589  0.05888426  1
  Al  Al14  1  0.77690011  0.42973007  0.81041525  1
  Al  Al15  1  0.89062150  0.54354847  0.55790366  1
  Al  Al16  1  0.43964501  0.43442429  0.31155757  1
  Al  Al17  1  0.55817708  0.54287619  0.06103077  1
  Al  Al18  1  0.11091022  0.42829540  0.81179276  1
  Al  Al19  1  0.21552126  0.54387683  0.56020564  1
  Al  Al20  1  0.77839593  0.42769418  0.31000814  1
  Al  Al21  1  0.88130777  0.54495283  0.06129696  1
  Al  Al22  1  0.44196990  0.43438045  0.81126364  1
  Al  Al23  1  0.55361600  0.53942117  0.55625321  1
  Al  Al24  1  0.10828607  0.76233505  0.31488461  1
  Al  Al25  1  0.22540440  0.87367011  0.06191926  1
  Al  Al26  1  0.78576856  0.76104601  0.80166049  1
  Al  Al27  1  0.44697821  0.76568979  0.31640218  1
  Al  Al28  1  0.10658705  0.76408024  0.80683644  1
  Al  Al29  1  0.21464694  0.87398194  0.55750628  1
  Al  Al30  1  0.77336284  0.76576540  0.32352214  1
  Al  Al31  1  0.88199745  0.87428264  0.06262138  1
  Al  Al32  1  0.44249735  0.75941913  0.80453352  1
  Al  Al33  1  0.56020103  0.86925346  0.59098860  1
  B  B34  1  0.89255189  0.86814982  0.55703617  1
  B  B35  1  0.55565420  0.87331633  0.10295635  1
  N  N36  1  0.21575492  0.20880518  0.36980074  1
  N  N37  1  0.11032265  0.09461141  0.11984435  1
  N  N38  1  0.88916967  0.20524947  0.86921759  1
  N  N39  1  0.79557770  0.06631222  0.61177582  1
  N  N40  1  0.55314983  0.20334557  0.32729216  1
  N  N41  1  0.46356299  0.05853781  0.07959442  1
  N  N42  1  0.22171056  0.20622439  0.87042546  1
  N  N43  1  0.10957636  0.09407143  0.62211956  1
  N  N44  1  0.88979579  0.20690085  0.37209640  1
  N  N45  1  0.78633748  0.08908672  0.12641624  1
  N  N46  1  0.55900288  0.20363152  0.82262073  1
  N  N47  1  0.43899910  0.10181829  0.58089513  1
  N  N48  1  0.22005696  0.53945399  0.37090583  1
  N  N49  1  0.11097610  0.42753768  0.11804236  1
  N  N50  1  0.88785478  0.54172452  0.87089328  1
  N  N51  1  0.77649581  0.42984715  0.61917787  1
  N  N52  1  0.55567835  0.53953493  0.36648454  1
  N  N53  1  0.44230248  0.43202595  0.11780956  1
  N  N54  1  0.22058202  0.54186739  0.86864175  1
  N  N55  1  0.10863151  0.42997123  0.62263006  1
  N  N56  1  0.88977131  0.53886815  0.36779177  1
  N  N57  1  0.77867587  0.42654957  0.12006558  1
  N  N58  1  0.55553896  0.54081158  0.87225680  1
  N  N59  1  0.43944370  0.43492819  0.61741439  1
  N  N60  1  0.22155607  0.87320052  0.36707089  1
  N  N61  1  0.10865080  0.76180462  0.12340003  1
  N  N62  1  0.89007484  0.86991523  0.87577804  1
  N  N63  1  0.80122934  0.76946740  0.61011443  1
  N  N64  1  0.55896614  0.86522412  0.38493435  1
  N  N65  1  0.45991767  0.77690718  0.11908927  1
  N  N66  1  0.22266280  0.87041224  0.87126035  1
  N  N67  1  0.08647300  0.77404470  0.61292776  1
  N  N68  1  0.89094574  0.87076467  0.39051822  1
  N  N69  1  0.74787892  0.77731934  0.12405369  1
  N  N70  1  0.55980811  0.86851799  0.81068878  1
  N  N71  1  0.43503516  0.75695521  0.61529051  1
