# generated using pymatgen
data_Al17BN18
_symmetry_space_group_name_H-M   'P 1'
_cell_length_a   9.33977598
_cell_length_b   9.31751334
_cell_length_c   10.14032951
_cell_angle_alpha   89.46075946
_cell_angle_beta   89.92836176
_cell_angle_gamma   59.89127851
_symmetry_Int_Tables_number   1
_chemical_formula_structural   Al17BN18
_chemical_formula_sum   'Al34 B2 N36'
_cell_volume   763.34280684
_cell_formula_units_Z   2
loop_
 _symmetry_equiv_pos_site_id
 _symmetry_equiv_pos_as_xyz
  1  'x, y, z'
loop_
 _atom_site_type_symbol
 _atom_site_label
 _atom_site_symmetry_multiplicity
 _atom_site_fract_x
 _atom_site_fract_y
 _atom_site_fract_z
 _atom_site_occupancy
  Al  Al0  1  0.10811881  0.09418860  0.32007591  1
  Al  Al1  1  0.22236863  0.20337419  0.08799561  1
  Al  Al2  1  0.77421468  0.09323416  0.89871433  1
  Al  Al3  1  0.89304396  0.20416725  0.57444562  1
  Al  Al4  1  0.44434168  0.09531285  0.39706138  1
  Al  Al5  1  0.56102034  0.19174823  0.14648265  1
  Al  Al6  1  0.11117512  0.09481816  0.82624811  1
  Al  Al7  1  0.21829732  0.20990115  0.59557739  1
  Al  Al8  1  0.78109055  0.08019722  0.38738246  1
  Al  Al9  1  0.88952718  0.21318733  0.07203757  1
  Al  Al10  1  0.45373054  0.08139109  0.88936519  1
  Al  Al11  1  0.56591265  0.19138811  0.64508063  1
  Al  Al12  1  0.10948912  0.43123278  0.31898209  1
  Al  Al13  1  0.22494392  0.53967787  0.06723570  1
  Al  Al14  1  0.77598192  0.43094116  0.82023644  1
  Al  Al15  1  0.89174659  0.54516002  0.56914943  1
  Al  Al16  1  0.44094612  0.43213595  0.32278211  1
  Al  Al17  1  0.55664241  0.54264999  0.07317458  1
  Al  Al18  1  0.11013853  0.42984589  0.82724549  1
  Al  Al19  1  0.21772432  0.54243609  0.57302455  1
  Al  Al20  1  0.77803607  0.42692660  0.32260745  1
  Al  Al21  1  0.87811524  0.54743247  0.06882899  1
  Al  Al22  1  0.44366249  0.43234689  0.82207100  1
  Al  Al23  1  0.55359214  0.53843453  0.56709279  1
  Al  Al24  1  0.11534928  0.75888984  0.31529051  1
  Al  Al25  1  0.22833024  0.87431501  0.06952903  1
  Al  Al26  1  0.78308801  0.76449130  0.82160832  1
  Al  Al27  1  0.44552232  0.76648022  0.32869990  1
  Al  Al28  1  0.10483418  0.76617765  0.82793708  1
  Al  Al29  1  0.21365998  0.87475701  0.57003375  1
  Al  Al30  1  0.76904139  0.76306375  0.32278386  1
  Al  Al31  1  0.88656796  0.87222254  0.10624603  1
  Al  Al32  1  0.44243536  0.75972386  0.81470347  1
  Al  Al33  1  0.55914546  0.87125877  0.60304487  1
  B  B34  1  0.89283225  0.86925896  0.61052614  1
  B  B35  1  0.55494196  0.86956878  0.11122916  1
  N  N36  1  0.22014629  0.20630910  0.36036958  1
  N  N37  1  0.10806775  0.09313781  0.13183328  1
  N  N38  1  0.89003458  0.21018694  0.88026265  1
  N  N39  1  0.79551697  0.05838414  0.58649357  1
  N  N40  1  0.55867606  0.19813683  0.33492356  1
  N  N41  1  0.46389574  0.05878284  0.08714495  1
  N  N42  1  0.22130426  0.20689243  0.88337001  1
  N  N43  1  0.11111546  0.09351140  0.63682899  1
  N  N44  1  0.88906459  0.20631130  0.38554879  1
  N  N45  1  0.77192870  0.10293902  0.08671597  1
  N  N46  1  0.55967979  0.19814997  0.83353420  1
  N  N47  1  0.44221174  0.10310490  0.58554234  1
  N  N48  1  0.22104293  0.53957658  0.38509289  1
  N  N49  1  0.10555789  0.43667489  0.12864532  1
  N  N50  1  0.88592759  0.54187417  0.88107619  1
  N  N51  1  0.77661488  0.43178695  0.63056709  1
  N  N52  1  0.55492618  0.53877508  0.37896794  1
  N  N53  1  0.44296055  0.43019349  0.13133095  1
  N  N54  1  0.22367439  0.53969763  0.87939368  1
  N  N55  1  0.10858647  0.43204753  0.63712751  1
  N  N56  1  0.88869740  0.53952120  0.38135337  1
  N  N57  1  0.77729769  0.43031057  0.13428170  1
  N  N58  1  0.55537176  0.54017743  0.88464761  1
  N  N59  1  0.44383476  0.42990680  0.63064510  1
  N  N60  1  0.22002528  0.87226264  0.38193084  1
  N  N61  1  0.12571276  0.75648843  0.12778813  1
  N  N62  1  0.89266468  0.86333502  0.89572425  1
  N  N63  1  0.80269473  0.77302344  0.62604599  1
  N  N64  1  0.56033783  0.86380101  0.39686612  1
  N  N65  1  0.45707446  0.77790936  0.13122380  1
  N  N66  1  0.22423506  0.87128393  0.88162003  1
  N  N67  1  0.08233633  0.77716051  0.63078134  1
  N  N68  1  0.88819200  0.87093394  0.32020538  1
  N  N69  1  0.74070018  0.77368034  0.12724622  1
  N  N70  1  0.55621510  0.87287560  0.81989158  1
  N  N71  1  0.43519935  0.75625943  0.62701261  1
