# generated using pymatgen
data_Al17BN18
_symmetry_space_group_name_H-M   'P 1'
_cell_length_a   9.32238095
_cell_length_b   9.30288010
_cell_length_c   10.13734996
_cell_angle_alpha   89.77565604
_cell_angle_beta   90.02083657
_cell_angle_gamma   60.07309568
_symmetry_Int_Tables_number   1
_chemical_formula_structural   Al17BN18
_chemical_formula_sum   'Al34 B2 N36'
_cell_volume   761.92789184
_cell_formula_units_Z   2
loop_
 _symmetry_equiv_pos_site_id
 _symmetry_equiv_pos_as_xyz
  1  'x, y, z'
loop_
 _atom_site_type_symbol
 _atom_site_label
 _atom_site_symmetry_multiplicity
 _atom_site_fract_x
 _atom_site_fract_y
 _atom_site_fract_z
 _atom_site_occupancy
  Al  Al0  1  0.10946112  0.09470711  0.31009052  1
  Al  Al1  1  0.21877233  0.20414904  0.06224807  1
  Al  Al2  1  0.78794190  0.08626507  0.82403926  1
  Al  Al3  1  0.88858501  0.19860586  0.56100053  1
  Al  Al4  1  0.45006212  0.09329741  0.38610916  1
  Al  Al5  1  0.55327772  0.19673446  0.12385599  1
  Al  Al6  1  0.11419256  0.09517762  0.80901735  1
  Al  Al7  1  0.21226830  0.21187086  0.56002782  1
  Al  Al8  1  0.78463791  0.08882070  0.30693474  1
  Al  Al9  1  0.88857557  0.20867762  0.05766849  1
  Al  Al10  1  0.45532201  0.08094980  0.87581101  1
  Al  Al11  1  0.55757126  0.19652852  0.63481792  1
  Al  Al12  1  0.11008970  0.42934153  0.30910358  1
  Al  Al13  1  0.22206521  0.54081047  0.05644124  1
  Al  Al14  1  0.77693464  0.43038360  0.80808957  1
  Al  Al15  1  0.89102278  0.54461491  0.55712521  1
  Al  Al16  1  0.43957686  0.43288775  0.30817705  1
  Al  Al17  1  0.55779929  0.54406530  0.06021059  1
  Al  Al18  1  0.11198932  0.42718426  0.81023206  1
  Al  Al19  1  0.21656918  0.54288501  0.56060309  1
  Al  Al20  1  0.77767609  0.42689136  0.31071447  1
  Al  Al21  1  0.88036839  0.54486015  0.05919983  1
  Al  Al22  1  0.44223571  0.43492700  0.81310482  1
  Al  Al23  1  0.55341268  0.53766456  0.55546429  1
  Al  Al24  1  0.11091365  0.76050819  0.30665266  1
  Al  Al25  1  0.22731794  0.87539821  0.05967354  1
  Al  Al26  1  0.78407369  0.76130996  0.80930178  1
  Al  Al27  1  0.44643797  0.76522713  0.31700693  1
  Al  Al28  1  0.10809371  0.76433218  0.81521952  1
  Al  Al29  1  0.21376968  0.87446322  0.55737140  1
  Al  Al30  1  0.77192368  0.76468045  0.31490913  1
  Al  Al31  1  0.88490793  0.87293067  0.07307139  1
  Al  Al32  1  0.44261729  0.76013513  0.80254499  1
  Al  Al33  1  0.55941021  0.87175276  0.59188692  1
  B  B34  1  0.89314245  0.86977273  0.60082553  1
  B  B35  1  0.55556387  0.87006658  0.09928497  1
  N  N36  1  0.21561094  0.20854787  0.36847600  1
  N  N37  1  0.10917559  0.09541538  0.12168963  1
  N  N38  1  0.89158262  0.20764499  0.86899838  1
  N  N39  1  0.79844632  0.06064132  0.62386697  1
  N  N40  1  0.55218398  0.20142933  0.31638082  1
  N  N41  1  0.46243472  0.05799408  0.07246902  1
  N  N42  1  0.22119754  0.20741070  0.87295946  1
  N  N43  1  0.10994198  0.09472544  0.62120361  1
  N  N44  1  0.88692341  0.20453364  0.37277141  1
  N  N45  1  0.78113439  0.09762997  0.11272060  1
  N  N46  1  0.55707159  0.20299358  0.82893921  1
  N  N47  1  0.44092047  0.10290245  0.57474597  1
  N  N48  1  0.22153917  0.53926065  0.37234613  1
  N  N49  1  0.10898970  0.43113609  0.11927866  1
  N  N50  1  0.88896052  0.53997413  0.87035172  1
  N  N51  1  0.77665144  0.42931560  0.61841691  1
  N  N52  1  0.55471658  0.53795741  0.36688018  1
  N  N53  1  0.44139325  0.43416099  0.11555603  1
  N  N54  1  0.22132408  0.54034973  0.86844739  1
  N  N55  1  0.10905390  0.42946936  0.62225731  1
  N  N56  1  0.88833699  0.53897766  0.36896758  1
  N  N57  1  0.77799101  0.42816972  0.12139728  1
  N  N58  1  0.55639938  0.54176553  0.87232062  1
  N  N59  1  0.44138602  0.43195022  0.62105475  1
  N  N60  1  0.22126648  0.87193505  0.36875942  1
  N  N61  1  0.11823913  0.75965266  0.11697472  1
  N  N62  1  0.89141525  0.86744968  0.88301130  1
  N  N63  1  0.80319357  0.77147846  0.61641480  1
  N  N64  1  0.56066660  0.86307257  0.38449146  1
  N  N65  1  0.45825696  0.77750074  0.11940790  1
  N  N66  1  0.22417285  0.87289342  0.87058738  1
  N  N67  1  0.08429189  0.77548223  0.62060554  1
  N  N68  1  0.89059750  0.86839812  0.34180197  1
  N  N69  1  0.74358922  0.77524110  0.11617326  1
  N  N70  1  0.55771627  0.87212713  0.80869630  1
  N  N71  1  0.43529493  0.75624427  0.61506956  1
