# generated using pymatgen
data_Al17BN18
_symmetry_space_group_name_H-M   'P 1'
_cell_length_a   9.29770909
_cell_length_b   9.29972659
_cell_length_c   9.94276166
_cell_angle_alpha   89.96827123
_cell_angle_beta   89.99762547
_cell_angle_gamma   60.00975150
_symmetry_Int_Tables_number   1
_chemical_formula_structural   Al17BN18
_chemical_formula_sum   'Al34 B2 N36'
_cell_volume   744.60573873
_cell_formula_units_Z   2
loop_
 _symmetry_equiv_pos_site_id
 _symmetry_equiv_pos_as_xyz
  1  'x, y, z'
loop_
 _atom_site_type_symbol
 _atom_site_label
 _atom_site_symmetry_multiplicity
 _atom_site_fract_x
 _atom_site_fract_y
 _atom_site_fract_z
 _atom_site_occupancy
  Al  Al0  1  0.11133673  0.09423612  0.31138429  1
  Al  Al1  1  0.22562888  0.20036093  0.06157153  1
  Al  Al2  1  0.78045814  0.08883866  0.80722481  1
  Al  Al3  1  0.89066557  0.20051029  0.56158474  1
  Al  Al4  1  0.44731706  0.08889081  0.30749039  1
  Al  Al5  1  0.55886627  0.19938380  0.06188306  1
  Al  Al6  1  0.11114826  0.09414300  0.81148374  1
  Al  Al7  1  0.22418684  0.20446471  0.56158577  1
  Al  Al8  1  0.77893583  0.09181207  0.31849225  1
  Al  Al9  1  0.88798546  0.20437189  0.06154783  1
  Al  Al10  1  0.44603487  0.09172125  0.81834767  1
  Al  Al11  1  0.55835562  0.19953998  0.56179557  1
  Al  Al12  1  0.11134207  0.42781782  0.31088710  1
  Al  Al13  1  0.22094620  0.54063699  0.06107422  1
  Al  Al14  1  0.77752989  0.42782962  0.81098924  1
  Al  Al15  1  0.88986927  0.54413140  0.56142680  1
  Al  Al16  1  0.44404466  0.42773931  0.31165871  1
  Al  Al17  1  0.55711712  0.54245084  0.06165429  1
  Al  Al18  1  0.11077567  0.42779632  0.81180887  1
  Al  Al19  1  0.21717230  0.54237537  0.56165211  1
  Al  Al20  1  0.77809395  0.42784836  0.31171927  1
  Al  Al21  1  0.88260670  0.54425155  0.06146817  1
  Al  Al22  1  0.44492855  0.42767861  0.81177004  1
  Al  Al23  1  0.55507043  0.54059435  0.56110863  1
  Al  Al24  1  0.10848107  0.76229870  0.31832020  1
  Al  Al25  1  0.22447410  0.87295898  0.06192479  1
  Al  Al26  1  0.77774052  0.76505788  0.81375323  1
  Al  Al27  1  0.44710888  0.76412348  0.30794225  1
  Al  Al28  1  0.10544873  0.76409864  0.80770786  1
  Al  Al29  1  0.21912496  0.87306776  0.56183351  1
  Al  Al30  1  0.77385523  0.76511692  0.31417243  1
  Al  Al31  1  0.88328193  0.87363864  0.06331424  1
  Al  Al32  1  0.44587818  0.76230695  0.81822206  1
  Al  Al33  1  0.55960977  0.87367594  0.56346522  1
  B  B34  1  0.88808287  0.87235495  0.55899870  1
  B  B35  1  0.55630091  0.87232383  0.05951279  1
  N  N36  1  0.22460097  0.20443082  0.36883676  1
  N  N37  1  0.11024595  0.09438120  0.12067572  1
  N  N38  1  0.88761630  0.20435439  0.86879687  1
  N  N39  1  0.79020541  0.06926624  0.61308800  1
  N  N40  1  0.55377531  0.20455789  0.37009007  1
  N  N41  1  0.45726894  0.06912176  0.11334528  1
  N  N42  1  0.22173434  0.20557656  0.87155288  1
  N  N43  1  0.11199511  0.09441520  0.62075109  1
  N  N44  1  0.88938961  0.20569286  0.37155368  1
  N  N45  1  0.77883868  0.09276180  0.12643626  1
  N  N46  1  0.55842523  0.20444329  0.87013278  1
  N  N47  1  0.44499357  0.09291057  0.62629600  1
  N  N48  1  0.22225280  0.53839807  0.37141805  1
  N  N49  1  0.11043364  0.42772895  0.11933783  1
  N  N50  1  0.88744901  0.54083807  0.86960004  1
  N  N51  1  0.77845722  0.42780960  0.61941588  1
  N  N52  1  0.55439744  0.54116664  0.36883068  1
  N  N53  1  0.44465616  0.42726380  0.11973559  1
  N  N54  1  0.22109862  0.54120418  0.86880125  1
  N  N55  1  0.11142186  0.42677128  0.62079643  1
  N  N56  1  0.88846575  0.54077749  0.36958117  1
  N  N57  1  0.77848498  0.42673954  0.12072209  1
  N  N58  1  0.55600688  0.53843889  0.87143396  1
  N  N59  1  0.44474173  0.42726231  0.61981970  1
  N  N60  1  0.22465510  0.87131785  0.37011698  1
  N  N61  1  0.10840408  0.76246240  0.12528143  1
  N  N62  1  0.88895760  0.87260640  0.87514716  1
  N  N63  1  0.78918511  0.77424269  0.61764078  1
  N  N64  1  0.55503319  0.87266979  0.37537158  1
  N  N65  1  0.45663806  0.77400896  0.11359217  1
  N  N66  1  0.22072213  0.87119289  0.87017493  1
  N  N67  1  0.08609067  0.77398516  0.61335611  1
  N  N68  1  0.88778737  0.87140694  0.39159694  1
  N  N69  1  0.75317335  0.77431720  0.11799823  1
  N  N70  1  0.55760753  0.87131273  0.89133761  1
  N  N71  1  0.44562004  0.76246226  0.62517751  1
