# generated using pymatgen
data_Al17BN18
_symmetry_space_group_name_H-M   'P 1'
_cell_length_a   9.31760433
_cell_length_b   9.29460864
_cell_length_c   10.29308151
_cell_angle_alpha   89.75629611
_cell_angle_beta   90.07040876
_cell_angle_gamma   59.88894434
_symmetry_Int_Tables_number   1
_chemical_formula_structural   Al17BN18
_chemical_formula_sum   'Al34 B2 N36'
_cell_volume   771.11137806
_cell_formula_units_Z   2
loop_
 _symmetry_equiv_pos_site_id
 _symmetry_equiv_pos_as_xyz
  1  'x, y, z'
loop_
 _atom_site_type_symbol
 _atom_site_label
 _atom_site_symmetry_multiplicity
 _atom_site_fract_x
 _atom_site_fract_y
 _atom_site_fract_z
 _atom_site_occupancy
  Al  Al0  1  0.11316839  0.09446358  0.39170008  1
  Al  Al1  1  0.22998458  0.19331071  0.13852848  1
  Al  Al2  1  0.77492408  0.09998861  0.89677725  1
  Al  Al3  1  0.89358879  0.19315461  0.63763953  1
  Al  Al4  1  0.44273774  0.09791787  0.39698299  1
  Al  Al5  1  0.56227008  0.19083099  0.14395981  1
  Al  Al6  1  0.10852147  0.09637634  0.89088254  1
  Al  Al7  1  0.22227981  0.20138983  0.64365819  1
  Al  Al8  1  0.78154412  0.08457538  0.38481730  1
  Al  Al9  1  0.89385112  0.20009112  0.14497185  1
  Al  Al10  1  0.44965924  0.08666134  0.88381177  1
  Al  Al11  1  0.56276992  0.19205851  0.64238755  1
  Al  Al12  1  0.10716566  0.43403822  0.31698857  1
  Al  Al13  1  0.22944967  0.52910070  0.07072327  1
  Al  Al14  1  0.77440110  0.43467110  0.81612800  1
  Al  Al15  1  0.89057967  0.54655395  0.56567134  1
  Al  Al16  1  0.44368104  0.43174711  0.31978531  1
  Al  Al17  1  0.56264226  0.53335673  0.06899061  1
  Al  Al18  1  0.10700715  0.43580110  0.82064926  1
  Al  Al19  1  0.21715479  0.53941119  0.56791261  1
  Al  Al20  1  0.77479360  0.43445216  0.32224086  1
  Al  Al21  1  0.88024464  0.54439580  0.06532458  1
  Al  Al22  1  0.44047687  0.43342129  0.81853094  1
  Al  Al23  1  0.55698407  0.53068725  0.57032076  1
  Al  Al24  1  0.10544265  0.76622326  0.36221620  1
  Al  Al25  1  0.23430284  0.87299481  0.13966333  1
  Al  Al26  1  0.78517248  0.76605466  0.81568816  1
  Al  Al27  1  0.44006824  0.76683323  0.39824584  1
  Al  Al28  1  0.11042903  0.76688772  0.89939447  1
  Al  Al29  1  0.21147257  0.87178037  0.64253437  1
  Al  Al30  1  0.76528331  0.76558282  0.31331396  1
  Al  Al31  1  0.88395096  0.87527846  0.10596026  1
  Al  Al32  1  0.44549145  0.76818010  0.87823464  1
  Al  Al33  1  0.55542963  0.87483524  0.61178068  1
  B  B34  1  0.89243592  0.86948103  0.59714675  1
  B  B35  1  0.55577999  0.86953618  0.09569769  1
  N  N36  1  0.22689185  0.19887330  0.32586995  1
  N  N37  1  0.11066785  0.09527080  0.07673809  1
  N  N38  1  0.89060429  0.19900315  0.82494594  1
  N  N39  1  0.79156607  0.06373834  0.57802633  1
  N  N40  1  0.55911278  0.19714356  0.33047508  1
  N  N41  1  0.46144244  0.06344090  0.07781154  1
  N  N42  1  0.22459762  0.20037962  0.83230095  1
  N  N43  1  0.11167717  0.09420243  0.57752642  1
  N  N44  1  0.89271687  0.19864444  0.33339236  1
  N  N45  1  0.77292004  0.10873424  0.08044362  1
  N  N46  1  0.55990120  0.19816298  0.82901511  1
  N  N47  1  0.43574095  0.10684998  0.58074050  1
  N  N48  1  0.22500300  0.53412905  0.38110512  1
  N  N49  1  0.10504903  0.43478666  0.12905610  1
  N  N50  1  0.88578942  0.54194225  0.87990181  1
  N  N51  1  0.77630849  0.43535651  0.62849220  1
  N  N52  1  0.55848371  0.53200884  0.38345396  1
  N  N53  1  0.44540993  0.42981632  0.13270943  1
  N  N54  1  0.22588295  0.53256976  0.88397670  1
  N  N55  1  0.10574092  0.43538698  0.63287595  1
  N  N56  1  0.88851463  0.54255262  0.38010988  1
  N  N57  1  0.77691441  0.43398882  0.13449337  1
  N  N58  1  0.55797296  0.53306683  0.88275397  1
  N  N59  1  0.43966872  0.43168310  0.63145679  1
  N  N60  1  0.22710928  0.87235954  0.32522096  1
  N  N61  1  0.12375964  0.76062908  0.08945919  1
  N  N62  1  0.88452304  0.86979537  0.89292330  1
  N  N63  1  0.80054343  0.77622823  0.62401837  1
  N  N64  1  0.56156640  0.86975615  0.38690310  1
  N  N65  1  0.45885738  0.77987227  0.07497261  1
  N  N66  1  0.21952741  0.87196456  0.82918270  1
  N  N67  1  0.07770513  0.78086331  0.57953684  1
  N  N68  1  0.88864940  0.87305991  0.30843522  1
  N  N69  1  0.73994185  0.77477339  0.12134800  1
  N  N70  1  0.55374656  0.87237005  0.81162468  1
  N  N71  1  0.43148513  0.76221217  0.58600716  1
