# generated using pymatgen
data_Al17BN18
_symmetry_space_group_name_H-M   'P 1'
_cell_length_a   9.31420966
_cell_length_b   9.30415033
_cell_length_c   10.04833698
_cell_angle_alpha   89.82829598
_cell_angle_beta   90.00002217
_cell_angle_gamma   59.96422423
_symmetry_Int_Tables_number   1
_chemical_formula_structural   Al17BN18
_chemical_formula_sum   'Al34 B2 N36'
_cell_volume   753.85578614
_cell_formula_units_Z   2
loop_
 _symmetry_equiv_pos_site_id
 _symmetry_equiv_pos_as_xyz
  1  'x, y, z'
loop_
 _atom_site_type_symbol
 _atom_site_label
 _atom_site_symmetry_multiplicity
 _atom_site_fract_x
 _atom_site_fract_y
 _atom_site_fract_z
 _atom_site_occupancy
  Al  Al0  1  0.11280390  0.09451155  0.39718170  1
  Al  Al1  1  0.22713874  0.19903321  0.14496267  1
  Al  Al2  1  0.77808326  0.09557400  0.90027582  1
  Al  Al3  1  0.89049338  0.19903353  0.64496237  1
  Al  Al4  1  0.44300945  0.09557411  0.40027539  1
  Al  Al5  1  0.55793444  0.19884533  0.14780049  1
  Al  Al6  1  0.10935163  0.09451031  0.89718162  1
  Al  Al7  1  0.22045806  0.20723337  0.64954785  1
  Al  Al8  1  0.78000073  0.08840417  0.38972440  1
  Al  Al9  1  0.88897390  0.20723350  0.14954800  1
  Al  Al10  1  0.44826278  0.08840381  0.88972535  1
  Al  Al11  1  0.55988636  0.19884577  0.64779989  1
  Al  Al12  1  0.11131247  0.42684176  0.39542440  1
  Al  Al13  1  0.22472998  0.53782632  0.14959433  1
  Al  Al14  1  0.77851319  0.42684099  0.89542430  1
  Al  Al15  1  0.89158544  0.54297720  0.64506612  1
  Al  Al16  1  0.44588192  0.42694320  0.39691216  1
  Al  Al17  1  0.55781490  0.54271859  0.14470961  1
  Al  Al18  1  0.11081718  0.42979220  0.89685749  1
  Al  Al19  1  0.21613335  0.54271822  0.64470953  1
  Al  Al20  1  0.77605663  0.42979383  0.39685759  1
  Al  Al21  1  0.88210497  0.54297560  0.14506550  1
  Al  Al22  1  0.44384183  0.42694244  0.89691195  1
  Al  Al23  1  0.55411102  0.53782737  0.64959421  1
  Al  Al24  1  0.10627696  0.76420288  0.38868024  1
  Al  Al25  1  0.22913662  0.87438311  0.14786710  1
  Al  Al26  1  0.77362407  0.76444969  0.88380146  1
  Al  Al27  1  0.44355543  0.75969035  0.40095602  1
  Al  Al28  1  0.11342266  0.75968869  0.90095635  1
  Al  Al29  1  0.21314686  0.87438319  0.64786624  1
  Al  Al30  1  0.77859143  0.76445113  0.38379601  1
  Al  Al31  1  0.88478018  0.87433701  0.12424547  1
  Al  Al32  1  0.44618658  0.76420233  0.88868086  1
  Al  Al33  1  0.55755050  0.87433815  0.62424982  1
  B  B34  1  0.88995733  0.86967387  0.60332312  1
  B  B35  1  0.55703483  0.86967380  0.10332523  1
  N  N36  1  0.22327930  0.20535206  0.33412490  1
  N  N37  1  0.11008447  0.09526797  0.08686597  1
  N  N38  1  0.88803554  0.20535128  0.83412460  1
  N  N39  1  0.79268598  0.06346617  0.58650340  1
  N  N40  1  0.55502566  0.20472101  0.33733428  1
  N  N41  1  0.46051408  0.06346615  0.08650399  1
  N  N42  1  0.22178198  0.20607301  0.83996960  1
  N  N43  1  0.11131299  0.09526828  0.58686591  1
  N  N44  1  0.88881099  0.20607446  0.33996965  1
  N  N45  1  0.77484672  0.10364266  0.08964659  1
  N  N46  1  0.55692052  0.20472032  0.83733371  1
  N  N47  1  0.43817692  0.10364223  0.58964636  1
  N  N48  1  0.22294079  0.53852892  0.33955574  1
  N  N49  1  0.11088960  0.42905428  0.08731040  1
  N  N50  1  0.88885639  0.53878159  0.83517165  1
  N  N51  1  0.77672300  0.42905497  0.58731053  1
  N  N52  1  0.55461958  0.53975219  0.33431363  1
  N  N53  1  0.44543073  0.42576007  0.08743742  1
  N  N54  1  0.22229530  0.53975106  0.83431343  1
  N  N55  1  0.11067065  0.42722771  0.58514895  1
  N  N56  1  0.88902885  0.53878187  0.33517081  1
  N  N57  1  0.77876804  0.42722741  0.08514875  1
  N  N58  1  0.55519722  0.53852856  0.83955570  1
  N  N59  1  0.44547596  0.42576095  0.58743761  1
  N  N60  1  0.22304821  0.87248842  0.33737929  1
  N  N61  1  0.12254015  0.75752287  0.09100877  1
  N  N62  1  0.89000659  0.87132618  0.87747803  1
  N  N63  1  0.79864989  0.77375485  0.59174025  1
  N  N64  1  0.55533293  0.87132769  0.37747071  1
  N  N65  1  0.45879039  0.77650559  0.08574782  1
  N  N66  1  0.22113030  0.87248757  0.83737848  1
  N  N67  1  0.08137019  0.77650550  0.58574756  1
  N  N68  1  0.88945553  0.87179664  0.32104077  1
  N  N69  1  0.74426191  0.77375360  0.09174011  1
  N  N70  1  0.55541549  0.87179587  0.82104288  1
  N  N71  1  0.43660503  0.75752466  0.59100862  1
