# generated using pymatgen
data_Al17BN18
_symmetry_space_group_name_H-M   'P 1'
_cell_length_a   9.29830211
_cell_length_b   9.30053294
_cell_length_c   9.94035112
_cell_angle_alpha   90.03209822
_cell_angle_beta   89.99999473
_cell_angle_gamma   60.00794006
_symmetry_Int_Tables_number   1
_chemical_formula_structural   Al17BN18
_chemical_formula_sum   'Al34 B2 N36'
_cell_volume   744.52364649
_cell_formula_units_Z   2
loop_
 _symmetry_equiv_pos_site_id
 _symmetry_equiv_pos_as_xyz
  1  'x, y, z'
loop_
 _atom_site_type_symbol
 _atom_site_label
 _atom_site_symmetry_multiplicity
 _atom_site_fract_x
 _atom_site_fract_y
 _atom_site_fract_z
 _atom_site_occupancy
  Al  Al0  1  0.11109840  0.09413593  0.40594472  1
  Al  Al1  1  0.22549599  0.20042231  0.15585046  1
  Al  Al2  1  0.77892957  0.09175078  0.89887602  1
  Al  Al3  1  0.89074826  0.20042285  0.65585055  1
  Al  Al4  1  0.44598680  0.09175113  0.39887598  1
  Al  Al5  1  0.55886007  0.19944892  0.15557590  1
  Al  Al6  1  0.11143343  0.09413576  0.90594479  1
  Al  Al7  1  0.22435883  0.20433404  0.65578317  1
  Al  Al8  1  0.78046944  0.08883367  0.41021874  1
  Al  Al9  1  0.88797426  0.20433383  0.15578314  1
  Al  Al10  1  0.44736430  0.08883356  0.91021878  1
  Al  Al11  1  0.55835704  0.19944910  0.65557591  1
  Al  Al12  1  0.11073834  0.42780663  0.40563365  1
  Al  Al13  1  0.22091344  0.54062757  0.15625386  1
  Al  Al14  1  0.77812251  0.42780645  0.90563367  1
  Al  Al15  1  0.88987613  0.54415556  0.65596059  1
  Al  Al16  1  0.44488918  0.42768978  0.40567266  1
  Al  Al17  1  0.55711796  0.54233398  0.15575936  1
  Al  Al18  1  0.11137456  0.42774689  0.90644708  1
  Al  Al19  1  0.21721451  0.54233449  0.65575930  1
  Al  Al20  1  0.77754555  0.42774700  0.40644715  1
  Al  Al21  1  0.88263519  0.54415491  0.15596073  1
  Al  Al22  1  0.44408726  0.42768951  0.90567272  1
  Al  Al23  1  0.55512581  0.54062710  0.65625401  1
  Al  Al24  1  0.10542883  0.76407352  0.40973095  1
  Al  Al25  1  0.22436506  0.87294770  0.15548925  1
  Al  Al26  1  0.77388546  0.76505155  0.90352496  1
  Al  Al27  1  0.44588088  0.76227516  0.39897595  1
  Al  Al28  1  0.10851003  0.76227520  0.89897577  1
  Al  Al29  1  0.21935348  0.87294850  0.65548926  1
  Al  Al30  1  0.77772887  0.76505160  0.40352494  1
  Al  Al31  1  0.88332952  0.87363183  0.15410641  1
  Al  Al32  1  0.44716401  0.76407286  0.90973081  1
  Al  Al33  1  0.55970471  0.87363217  0.65410639  1
  B  B34  1  0.88806011  0.87232710  0.65842048  1
  B  B35  1  0.55627951  0.87232664  0.15842045  1
  N  N36  1  0.22162125  0.20560876  0.34589305  1
  N  N37  1  0.11024440  0.09434044  0.09670204  1
  N  N38  1  0.88943757  0.20560848  0.84589324  1
  N  N39  1  0.79025084  0.06921718  0.60437265  1
  N  N40  1  0.55844112  0.20446829  0.34734144  1
  N  N41  1  0.45719888  0.06921671  0.10437253  1
  N  N42  1  0.22474220  0.20431686  0.84859738  1
  N  N43  1  0.11208183  0.09434097  0.59670198  1
  N  N44  1  0.88760838  0.20431687  0.34859746  1
  N  N45  1  0.77880651  0.09273656  0.09097236  1
  N  N46  1  0.55375784  0.20446809  0.84734144  1
  N  N47  1  0.44512350  0.09273664  0.59097216  1
  N  N48  1  0.22106617  0.54119381  0.34859592  1
  N  N49  1  0.11040487  0.42771388  0.09804560  1
  N  N50  1  0.88846017  0.54079083  0.84786073  1
  N  N51  1  0.77854792  0.42771414  0.59804563  1
  N  N52  1  0.55603803  0.53834811  0.34600369  1
  N  N53  1  0.44463870  0.42723919  0.09764774  1
  N  N54  1  0.22228047  0.53834824  0.84600359  1
  N  N55  1  0.11148598  0.42670420  0.59667527  1
  N  N56  1  0.88741607  0.54079079  0.34786082  1
  N  N57  1  0.77847675  0.42670383  0.09667524  1
  N  N58  1  0.55440708  0.54119305  0.84859608  1
  N  N59  1  0.44478841  0.42723927  0.59764769  1
  N  N60  1  0.22065320  0.87119846  0.34726815  1
  N  N61  1  0.10838438  0.76244973  0.09206994  1
  N  N62  1  0.88775826  0.87132430  0.82584221  1
  N  N63  1  0.78916682  0.77424485  0.59968228  1
  N  N64  1  0.55758368  0.87132435  0.32584222  1
  N  N65  1  0.45656641  0.77393532  0.10409341  1
  N  N66  1  0.22481478  0.87119836  0.84726814  1
  N  N67  1  0.08616449  0.77393592  0.60409349  1
  N  N68  1  0.88895822  0.87262847  0.34229236  1
  N  N69  1  0.75325486  0.77424439  0.09968231  1
  N  N70  1  0.55507945  0.87262837  0.84229234  1
  N  N71  1  0.44583226  0.76244969  0.59207016  1
