# generated using pymatgen
data_Al17BN18
_symmetry_space_group_name_H-M   'P 1'
_cell_length_a   9.29830603
_cell_length_b   9.30053717
_cell_length_c   9.94034865
_cell_angle_alpha   89.96807134
_cell_angle_beta   90.00000723
_cell_angle_gamma   60.00794393
_symmetry_Int_Tables_number   1
_chemical_formula_structural   Al17BN18
_chemical_formula_sum   'Al34 B2 N36'
_cell_volume   744.52414463
_cell_formula_units_Z   2
loop_
 _symmetry_equiv_pos_site_id
 _symmetry_equiv_pos_as_xyz
  1  'x, y, z'
loop_
 _atom_site_type_symbol
 _atom_site_label
 _atom_site_symmetry_multiplicity
 _atom_site_fract_x
 _atom_site_fract_y
 _atom_site_fract_z
 _atom_site_occupancy
  Al  Al0  1  0.11141106  0.09418006  0.30506356  1
  Al  Al1  1  0.22547383  0.20046652  0.05515784  1
  Al  Al2  1  0.78044720  0.08887780  0.80078419  1
  Al  Al3  1  0.89072619  0.20046707  0.55515779  1
  Al  Al4  1  0.44734245  0.08887764  0.30078411  1
  Al  Al5  1  0.55883773  0.19949348  0.05543017  1
  Al  Al6  1  0.11107646  0.09418026  0.80506362  1
  Al  Al7  1  0.22433608  0.20437893  0.55522371  1
  Al  Al8  1  0.77890734  0.09179560  0.31212685  1
  Al  Al9  1  0.88795209  0.20437873  0.05522373  1
  Al  Al10  1  0.44596417  0.09179598  0.81212692  1
  Al  Al11  1  0.55833482  0.19949363  0.55543019  1
  Al  Al12  1  0.11135252  0.42779145  0.30455979  1
  Al  Al13  1  0.22089163  0.54067185  0.05475137  1
  Al  Al14  1  0.77752300  0.42779162  0.80455975  1
  Al  Al15  1  0.88985429  0.54419993  0.55504728  1
  Al  Al16  1  0.44406464  0.42773372  0.30533520  1
  Al  Al17  1  0.55709615  0.54237798  0.05524864  1
  Al  Al18  1  0.11071614  0.42785054  0.80537584  1
  Al  Al19  1  0.21719229  0.54237848  0.55524870  1
  Al  Al20  1  0.77810077  0.42785034  0.30537584  1
  Al  Al21  1  0.88261265  0.54419929  0.05504718  1
  Al  Al22  1  0.44486758  0.42773399  0.80533525  1
  Al  Al23  1  0.55510333  0.54067137  0.55475124  1
  Al  Al24  1  0.10848851  0.76231900  0.31202641  1
  Al  Al25  1  0.22434271  0.87299222  0.05551638  1
  Al  Al26  1  0.77770691  0.76509577  0.80748065  1
  Al  Al27  1  0.44714175  0.76411762  0.30127071  1
  Al  Al28  1  0.10540633  0.76411828  0.80127059  1
  Al  Al29  1  0.21933130  0.87299300  0.55551639  1
  Al  Al30  1  0.77386328  0.76509568  0.30748060  1
  Al  Al31  1  0.88330757  0.87367600  0.05689685  1
  Al  Al32  1  0.44585854  0.76231897  0.81202626  1
  Al  Al33  1  0.55968247  0.87367631  0.55689689  1
  B  B34  1  0.88803784  0.87237161  0.55258121  1
  B  B35  1  0.55625725  0.87237115  0.05258121  1
  N  N36  1  0.22472037  0.20436135  0.36240802  1
  N  N37  1  0.11022203  0.09438469  0.11430482  1
  N  N38  1  0.88758571  0.20436140  0.86240794  1
  N  N39  1  0.79022856  0.06926127  0.60663051  1
  N  N40  1  0.55373592  0.20451199  0.36366332  1
  N  N41  1  0.45717706  0.06926078  0.10663059  1
  N  N42  1  0.22159959  0.20565273  0.86511408  1
  N  N43  1  0.11205993  0.09438522  0.61430487  1
  N  N44  1  0.88941524  0.20565243  0.36511394  1
  N  N45  1  0.77878454  0.09278079  0.12003058  1
  N  N46  1  0.55841914  0.20451220  0.86366334  1
  N  N47  1  0.44510123  0.09278084  0.62003079  1
  N  N48  1  0.22225781  0.53839312  0.36500294  1
  N  N49  1  0.11038280  0.42775878  0.11296022  1
  N  N50  1  0.88739344  0.54083538  0.86314590  1
  N  N51  1  0.77852506  0.42775907  0.61296019  1
  N  N52  1  0.55438418  0.54123834  0.36240847  1
  N  N53  1  0.44461615  0.42728359  0.11335859  1
  N  N54  1  0.22104379  0.54123908  0.86240861  1
  N  N55  1  0.11146366  0.42674854  0.61433284  1
  N  N56  1  0.88843824  0.54083538  0.36314595  1
  N  N57  1  0.77845469  0.42674817  0.11433286  1
  N  N58  1  0.55601578  0.53839298  0.86500280  1
  N  N59  1  0.44476654  0.42728365  0.61335863  1
  N  N60  1  0.22479304  0.87124216  0.36373625  1
  N  N61  1  0.10836223  0.76249411  0.11893254  1
  N  N62  1  0.88893635  0.87267305  0.86871053  1
  N  N63  1  0.78914420  0.77428973  0.61132132  1
  N  N64  1  0.55505678  0.87267290  0.36871053  1
  N  N65  1  0.45654414  0.77398026  0.10690888  1
  N  N66  1  0.22063109  0.87124231  0.86373625  1
  N  N67  1  0.08614182  0.77398085  0.60690881  1
  N  N68  1  0.88773618  0.87136890  0.38515943  1
  N  N69  1  0.75323256  0.77428928  0.11132127  1
  N  N70  1  0.55756112  0.87136897  0.88515942  1
  N  N71  1  0.44580999  0.76249405  0.61893235  1
