# generated using pymatgen
data_Al17BN18
_symmetry_space_group_name_H-M   'P 1'
_cell_length_a   9.30086137
_cell_length_b   9.30018458
_cell_length_c   9.98227124
_cell_angle_alpha   89.96372590
_cell_angle_beta   89.97898598
_cell_angle_gamma   60.01412443
_symmetry_Int_Tables_number   1
_chemical_formula_structural   Al17BN18
_chemical_formula_sum   'Al34 B2 N36'
_cell_volume   747.88779144
_cell_formula_units_Z   2
loop_
 _symmetry_equiv_pos_site_id
 _symmetry_equiv_pos_as_xyz
  1  'x, y, z'
loop_
 _atom_site_type_symbol
 _atom_site_label
 _atom_site_symmetry_multiplicity
 _atom_site_fract_x
 _atom_site_fract_y
 _atom_site_fract_z
 _atom_site_occupancy
  Al  Al0  1  0.11026261  0.09493471  0.31049143  1
  Al  Al1  1  0.22708062  0.19876413  0.06160999  1
  Al  Al2  1  0.78011307  0.08844513  0.80782227  1
  Al  Al3  1  0.89024805  0.20100280  0.56234538  1
  Al  Al4  1  0.44649315  0.08970910  0.31651711  1
  Al  Al5  1  0.55944595  0.19802925  0.06399639  1
  Al  Al6  1  0.11244818  0.09353349  0.81182848  1
  Al  Al7  1  0.22140064  0.20644884  0.56076321  1
  Al  Al8  1  0.77974297  0.09201421  0.31897077  1
  Al  Al9  1  0.88820523  0.20433139  0.06055796  1
  Al  Al10  1  0.44658988  0.09155412  0.81167137  1
  Al  Al11  1  0.55873469  0.20105775  0.56158226  1
  Al  Al12  1  0.11117398  0.42820636  0.30997188  1
  Al  Al13  1  0.22124538  0.54043546  0.05998459  1
  Al  Al14  1  0.77715689  0.42903849  0.81139475  1
  Al  Al15  1  0.89077239  0.54303113  0.56075599  1
  Al  Al16  1  0.44352435  0.42820756  0.31148774  1
  Al  Al17  1  0.55778198  0.54312452  0.06154390  1
  Al  Al18  1  0.11134566  0.42727999  0.81241573  1
  Al  Al19  1  0.21686603  0.54254716  0.56200236  1
  Al  Al20  1  0.77831135  0.42746485  0.31120281  1
  Al  Al21  1  0.88183303  0.54470376  0.06126009  1
  Al  Al22  1  0.44538633  0.42730022  0.81225814  1
  Al  Al23  1  0.55469271  0.53930396  0.56006746  1
  Al  Al24  1  0.10848791  0.76207288  0.31691025  1
  Al  Al25  1  0.22539358  0.87329817  0.06173686  1
  Al  Al26  1  0.77903120  0.76447761  0.80794365  1
  Al  Al27  1  0.44646352  0.76374566  0.31503487  1
  Al  Al28  1  0.10581851  0.76413569  0.80806884  1
  Al  Al29  1  0.21637283  0.87379725  0.56028260  1
  Al  Al30  1  0.77456670  0.76507123  0.32159112  1
  Al  Al31  1  0.88219760  0.87407994  0.06324156  1
  Al  Al32  1  0.44576770  0.76188205  0.81134105  1
  Al  Al33  1  0.55886256  0.87350635  0.57091868  1
  B  B34  1  0.88974966  0.87048057  0.55858328  1
  B  B35  1  0.55638593  0.87208057  0.09289577  1
  N  N36  1  0.22195048  0.20582453  0.36895774  1
  N  N37  1  0.11033561  0.09442402  0.12038354  1
  N  N38  1  0.88792740  0.20444926  0.86872552  1
  N  N39  1  0.79009374  0.06955565  0.61365995  1
  N  N40  1  0.55474492  0.20561865  0.37017913  1
  N  N41  1  0.45912200  0.06514771  0.12076867  1
  N  N42  1  0.22381070  0.20469372  0.87225212  1
  N  N43  1  0.11157033  0.09459856  0.62130974  1
  N  N44  1  0.88939109  0.20618247  0.37226911  1
  N  N45  1  0.77966894  0.09250412  0.12718828  1
  N  N46  1  0.55774052  0.20397639  0.87146522  1
  N  N47  1  0.44169399  0.09829692  0.62033207  1
  N  N48  1  0.22185909  0.53862700  0.37170373  1
  N  N49  1  0.11077320  0.42752808  0.11904266  1
  N  N50  1  0.88816366  0.54126472  0.87042137  1
  N  N51  1  0.77770373  0.42886106  0.61994342  1
  N  N52  1  0.55520402  0.53952906  0.36869315  1
  N  N53  1  0.44455019  0.42772867  0.12014566  1
  N  N54  1  0.22146326  0.54106423  0.86873133  1
  N  N55  1  0.11082572  0.42728456  0.62169434  1
  N  N56  1  0.88918148  0.53939431  0.36960087  1
  N  N57  1  0.77871307  0.42663377  0.12070628  1
  N  N58  1  0.55522943  0.53950059  0.87209289  1
  N  N59  1  0.44438369  0.42747190  0.62045332  1
  N  N60  1  0.22238080  0.87256684  0.36924830  1
  N  N61  1  0.10850690  0.76221266  0.12456703  1
  N  N62  1  0.88914722  0.87156551  0.87570266  1
  N  N63  1  0.79385017  0.77249757  0.61318384  1
  N  N64  1  0.55516823  0.87204090  0.38082594  1
  N  N65  1  0.45890571  0.77564894  0.11953776  1
  N  N66  1  0.22211106  0.87024675  0.87087351  1
  N  N67  1  0.08588169  0.77411394  0.61363438  1
  N  N68  1  0.88926350  0.87198305  0.39139843  1
  N  N69  1  0.74970496  0.77606740  0.12397123  1
  N  N70  1  0.55865642  0.87017873  0.85817938  1
  N  N71  1  0.44101623  0.76032983  0.61943126  1
