# generated using pymatgen
data_Al17BN18
_symmetry_space_group_name_H-M   'P 1'
_cell_length_a   9.31670932
_cell_length_b   9.30794571
_cell_length_c   10.05143408
_cell_angle_alpha   89.79552062
_cell_angle_beta   90.00002663
_cell_angle_gamma   59.96883823
_symmetry_Int_Tables_number   1
_chemical_formula_structural   Al17BN18
_chemical_formula_sum   'Al34 B2 N36'
_cell_volume   754.63144897
_cell_formula_units_Z   2
loop_
 _symmetry_equiv_pos_site_id
 _symmetry_equiv_pos_as_xyz
  1  'x, y, z'
loop_
 _atom_site_type_symbol
 _atom_site_label
 _atom_site_symmetry_multiplicity
 _atom_site_fract_x
 _atom_site_fract_y
 _atom_site_fract_z
 _atom_site_occupancy
  Al  Al0  1  0.11281829  0.09448972  0.39730895  1
  Al  Al1  1  0.22736203  0.19881407  0.14494311  1
  Al  Al2  1  0.77753592  0.09666392  0.90102746  1
  Al  Al3  1  0.89048891  0.19881453  0.64494272  1
  Al  Al4  1  0.44246680  0.09666395  0.40102724  1
  Al  Al5  1  0.55792494  0.19886908  0.14793451  1
  Al  Al6  1  0.10935883  0.09448846  0.89730884  1
  Al  Al7  1  0.22041576  0.20721951  0.64980824  1
  Al  Al8  1  0.78014596  0.08832491  0.38999927  1
  Al  Al9  1  0.88902979  0.20721965  0.14980845  1
  Al  Al10  1  0.44819659  0.08832444  0.88999995  1
  Al  Al11  1  0.55987196  0.19886951  0.64793390  1
  Al  Al12  1  0.11153770  0.42677154  0.39548286  1
  Al  Al13  1  0.22492898  0.53776774  0.14977034  1
  Al  Al14  1  0.77835795  0.42677067  0.89548272  1
  Al  Al15  1  0.89203032  0.54202161  0.64404057  1
  Al  Al16  1  0.44595673  0.42691377  0.39701381  1
  Al  Al17  1  0.55780334  0.54279781  0.14460255  1
  Al  Al18  1  0.11107243  0.42955039  0.89696071  1
  Al  Al19  1  0.21606548  0.54279751  0.64460240  1
  Al  Al20  1  0.77604296  0.42955225  0.39696086  1
  Al  Al21  1  0.88261618  0.54201930  0.14403947  1
  Al  Al22  1  0.44379634  0.42691289  0.89701360  1
  Al  Al23  1  0.55397043  0.53776887  0.64977014  1
  Al  Al24  1  0.10618376  0.76422149  0.38895334  1
  Al  Al25  1  0.22937532  0.87432901  0.14806163  1
  Al  Al26  1  0.77502402  0.76516273  0.87066678  1
  Al  Al27  1  0.44301609  0.75924460  0.40169326  1
  Al  Al28  1  0.11440864  0.75924258  0.90169340  1
  Al  Al29  1  0.21296212  0.87432915  0.64806066  1
  Al  Al30  1  0.77647905  0.76516406  0.37065787  1
  Al  Al31  1  0.88482724  0.87444707  0.12107563  1
  Al  Al32  1  0.44626124  0.76422089  0.88895370  1
  Al  Al33  1  0.55739429  0.87444787  0.62108029  1
  B  B34  1  0.88953533  0.86925374  0.60301928  1
  B  B35  1  0.55787665  0.86925381  0.10302045  1
  N  N36  1  0.22335441  0.20529431  0.33410435  1
  N  N37  1  0.11007907  0.09526644  0.08698762  1
  N  N38  1  0.88801798  0.20529351  0.83410400  1
  N  N39  1  0.79262921  0.06346483  0.58659807  1
  N  N40  1  0.55509089  0.20465167  0.33745459  1
  N  N41  1  0.46057219  0.06346456  0.08659869  1
  N  N42  1  0.22170339  0.20610724  0.84013487  1
  N  N43  1  0.11131959  0.09526682  0.58698755  1
  N  N44  1  0.88885501  0.20610882  0.34013491  1
  N  N45  1  0.77445121  0.10461745  0.08999497  1
  N  N46  1  0.55692445  0.20465091  0.83745406  1
  N  N47  1  0.43759748  0.10461699  0.58999495  1
  N  N48  1  0.22298748  0.53853301  0.33967764  1
  N  N49  1  0.11123814  0.42885869  0.08722687  1
  N  N50  1  0.88947768  0.53750645  0.83477581  1
  N  N51  1  0.77656999  0.42885962  0.58722705  1
  N  N52  1  0.55469182  0.53988341  0.33427800  1
  N  N53  1  0.44544697  0.42572210  0.08749347  1
  N  N54  1  0.22209176  0.53988212  0.83427778  1
  N  N55  1  0.11092789  0.42701782  0.58494002  1
  N  N56  1  0.88968258  0.53750677  0.33477440  1
  N  N57  1  0.77872053  0.42701746  0.08493982  1
  N  N58  1  0.55514622  0.53853254  0.83967762  1
  N  N59  1  0.44549749  0.42572300  0.58749364  1
  N  N60  1  0.22312023  0.87255380  0.33754287  1
  N  N61  1  0.12359798  0.75710044  0.09136920  1
  N  N62  1  0.89006965  0.87159122  0.88338033  1
  N  N63  1  0.79885902  0.77430526  0.60000960  1
  N  N64  1  0.55500601  0.87159251  0.38337360  1
  N  N65  1  0.45888094  0.77652267  0.08583236  1
  N  N66  1  0.22099297  0.87255299  0.83754200  1
  N  N67  1  0.08126270  0.77652259  0.58583207  1
  N  N68  1  0.89018021  0.87260146  0.32054808  1
  N  N69  1  0.74350304  0.77430389  0.10000785  1
  N  N70  1  0.55388668  0.87260030  0.82055065  1
  N  N71  1  0.43596963  0.75710240  0.59136922  1
