# generated using pymatgen
data_Al17BN18
_symmetry_space_group_name_H-M   'P 1'
_cell_length_a   9.29831533
_cell_length_b   9.30054689
_cell_length_c   9.94033161
_cell_angle_alpha   89.96805684
_cell_angle_beta   90.00000705
_cell_angle_gamma   60.00794373
_symmetry_Int_Tables_number   1
_chemical_formula_structural   Al17BN18
_chemical_formula_sum   'Al34 B2 N36'
_cell_volume   744.52438965
_cell_formula_units_Z   2
loop_
 _symmetry_equiv_pos_site_id
 _symmetry_equiv_pos_as_xyz
  1  'x, y, z'
loop_
 _atom_site_type_symbol
 _atom_site_label
 _atom_site_symmetry_multiplicity
 _atom_site_fract_x
 _atom_site_fract_y
 _atom_site_fract_z
 _atom_site_occupancy
  Al  Al0  1  0.11141194  0.09417830  0.30717379  1
  Al  Al1  1  0.22547388  0.20046538  0.05726799  1
  Al  Al2  1  0.78044793  0.08887663  0.80289198  1
  Al  Al3  1  0.89072734  0.20046599  0.55726784  1
  Al  Al4  1  0.44734288  0.08887653  0.30289192  1
  Al  Al5  1  0.55883971  0.19949142  0.05754187  1
  Al  Al6  1  0.11107720  0.09417851  0.80717389  1
  Al  Al7  1  0.22433794  0.20437644  0.55733527  1
  Al  Al8  1  0.77890836  0.09179322  0.31424087  1
  Al  Al9  1  0.88795264  0.20437631  0.05733523  1
  Al  Al10  1  0.44596551  0.09179349  0.81424108  1
  Al  Al11  1  0.55833492  0.19949164  0.55754194  1
  Al  Al12  1  0.11135327  0.42778954  0.30667193  1
  Al  Al13  1  0.22089225  0.54067030  0.05686434  1
  Al  Al14  1  0.77752416  0.42778970  0.80667184  1
  Al  Al15  1  0.88985483  0.54419807  0.55715781  1
  Al  Al16  1  0.44406614  0.42773160  0.30744711  1
  Al  Al17  1  0.55709712  0.54237529  0.05735913  1
  Al  Al18  1  0.11071705  0.42784896  0.80748612  1
  Al  Al19  1  0.21719413  0.54237572  0.55735923  1
  Al  Al20  1  0.77810136  0.42784892  0.30748606  1
  Al  Al21  1  0.88261403  0.54419744  0.05715763  1
  Al  Al22  1  0.44486824  0.42773186  0.80744730  1
  Al  Al23  1  0.55510428  0.54066995  0.55686420  1
  Al  Al24  1  0.10848875  0.76231763  0.31413984  1
  Al  Al25  1  0.22434247  0.87299016  0.05762642  1
  Al  Al26  1  0.77770717  0.76509406  0.80958833  1
  Al  Al27  1  0.44714233  0.76411516  0.30337867  1
  Al  Al28  1  0.10540817  0.76411569  0.80337851  1
  Al  Al29  1  0.21933356  0.87299099  0.55762655  1
  Al  Al30  1  0.77386465  0.76509410  0.30958840  1
  Al  Al31  1  0.88330889  0.87367447  0.05900315  1
  Al  Al32  1  0.44585964  0.76231762  0.81413964  1
  Al  Al33  1  0.55968266  0.87367479  0.55900326  1
  B  B34  1  0.88803854  0.87236931  0.55469058  1
  B  B35  1  0.55625891  0.87236878  0.05469068  1
  N  N36  1  0.22472180  0.20435898  0.36451782  1
  N  N37  1  0.11022317  0.09438250  0.11641447  1
  N  N38  1  0.88758650  0.20435905  0.86451799  1
  N  N39  1  0.79022928  0.06925998  0.60873863  1
  N  N40  1  0.55373647  0.20450957  0.36577414  1
  N  N41  1  0.45717769  0.06925939  0.10873888  1
  N  N42  1  0.22160015  0.20565097  0.86722358  1
  N  N43  1  0.11206084  0.09438316  0.61641430  1
  N  N44  1  0.88941628  0.20565078  0.36722340  1
  N  N45  1  0.77878609  0.09277752  0.12214253  1
  N  N46  1  0.55842108  0.20450972  0.86577435  1
  N  N47  1  0.44510306  0.09277760  0.62214258  1
  N  N48  1  0.22225889  0.53839115  0.36711310  1
  N  N49  1  0.11038339  0.42775688  0.11507079  1
  N  N50  1  0.88739392  0.54083448  0.86525517  1
  N  N51  1  0.77852639  0.42775715  0.61507069  1
  N  N52  1  0.55438505  0.54123698  0.36451925  1
  N  N53  1  0.44461728  0.42728140  0.11546979  1
  N  N54  1  0.22104435  0.54123765  0.86451969  1
  N  N55  1  0.11146447  0.42674682  0.61644201  1
  N  N56  1  0.88843857  0.54083460  0.36525524  1
  N  N57  1  0.77845574  0.42674648  0.11644237  1
  N  N58  1  0.55601674  0.53839101  0.86711279  1
  N  N59  1  0.44476776  0.42728139  0.61546965  1
  N  N60  1  0.22479422  0.87124043  0.36584552  1
  N  N61  1  0.10836198  0.76249286  0.12104395  1
  N  N62  1  0.88893720  0.87267132  0.87081659  1
  N  N63  1  0.78914391  0.77428807  0.61342956  1
  N  N64  1  0.55505762  0.87267120  0.37081657  1
  N  N65  1  0.45654448  0.77397782  0.10901704  1
  N  N66  1  0.22063155  0.87124049  0.86584528  1
  N  N67  1  0.08614388  0.77397834  0.60901686  1
  N  N68  1  0.88773668  0.87136649  0.38727064  1
  N  N69  1  0.75323454  0.77428759  0.11342969  1
  N  N70  1  0.55756310  0.87136641  0.88727069  1
  N  N71  1  0.44581154  0.76249283  0.62104354  1
