# generated using pymatgen
data_Al17BN18
_symmetry_space_group_name_H-M   'P 1'
_cell_length_a   9.29831210
_cell_length_b   9.30054325
_cell_length_c   9.94033407
_cell_angle_alpha   90.03200795
_cell_angle_beta   89.99999467
_cell_angle_gamma   60.00794164
_symmetry_Int_Tables_number   1
_chemical_formula_structural   Al17BN18
_chemical_formula_sum   'Al34 B2 N36'
_cell_volume   744.52400809
_cell_formula_units_Z   2
loop_
 _symmetry_equiv_pos_site_id
 _symmetry_equiv_pos_as_xyz
  1  'x, y, z'
loop_
 _atom_site_type_symbol
 _atom_site_label
 _atom_site_symmetry_multiplicity
 _atom_site_fract_x
 _atom_site_fract_y
 _atom_site_fract_z
 _atom_site_occupancy
  Al  Al0  1  0.11110156  0.09413005  0.41172230  1
  Al  Al1  1  0.22549901  0.20041625  0.16162800  1
  Al  Al2  1  0.77893245  0.09174541  0.90465890  1
  Al  Al3  1  0.89075128  0.20041679  0.66162806  1
  Al  Al4  1  0.44598928  0.09174578  0.40465884  1
  Al  Al5  1  0.55886276  0.19944324  0.16135567  1
  Al  Al6  1  0.11143617  0.09412986  0.91172237  1
  Al  Al7  1  0.22436112  0.20432872  0.66156233  1
  Al  Al8  1  0.78047231  0.08882757  0.41600134  1
  Al  Al9  1  0.88797725  0.20432853  0.16156232  1
  Al  Al10  1  0.44736759  0.08882740  0.91600141  1
  Al  Al11  1  0.55836003  0.19944340  0.66135566  1
  Al  Al12  1  0.11074123  0.42780036  0.41141012  1
  Al  Al13  1  0.22091676  0.54062160  0.16203463  1
  Al  Al14  1  0.77812588  0.42780016  0.91141013  1
  Al  Al15  1  0.88987944  0.54414969  0.66173867  1
  Al  Al16  1  0.44489271  0.42768381  0.41145073  1
  Al  Al17  1  0.55712127  0.54232778  0.16153721  1
  Al  Al18  1  0.11137765  0.42774130  0.91222621  1
  Al  Al19  1  0.21721737  0.54232829  0.66153714  1
  Al  Al20  1  0.77754805  0.42774146  0.41222625  1
  Al  Al21  1  0.88263776  0.54414904  0.16173878  1
  Al  Al22  1  0.44408970  0.42768355  0.91145078  1
  Al  Al23  1  0.55512846  0.54062113  0.66203475  1
  Al  Al24  1  0.10543138  0.76406812  0.41551494  1
  Al  Al25  1  0.22436792  0.87294205  0.16126941  1
  Al  Al26  1  0.77388830  0.76504552  0.90930505  1
  Al  Al27  1  0.44588366  0.76226873  0.40475949  1
  Al  Al28  1  0.10851368  0.76226876  0.90475934  1
  Al  Al29  1  0.21935629  0.87294283  0.66126941  1
  Al  Al30  1  0.77773209  0.76504561  0.40930500  1
  Al  Al31  1  0.88333268  0.87362575  0.15988844  1
  Al  Al32  1  0.44716690  0.76406746  0.91551481  1
  Al  Al33  1  0.55970765  0.87362606  0.65988840  1
  B  B34  1  0.88806300  0.87232133  0.66420436  1
  B  B35  1  0.55628238  0.87232088  0.16420436  1
  N  N36  1  0.22162468  0.20560252  0.35167239  1
  N  N37  1  0.11024716  0.09433441  0.10248151  1
  N  N38  1  0.88944036  0.20560222  0.85167254  1
  N  N39  1  0.79025363  0.06921107  0.61015513  1
  N  N40  1  0.55844417  0.20446201  0.35312279  1
  N  N41  1  0.45720220  0.06921056  0.11015506  1
  N  N42  1  0.22474544  0.20431109  0.85437819  1
  N  N43  1  0.11208508  0.09433493  0.60248146  1
  N  N44  1  0.88761091  0.20431113  0.35437827  1
  N  N45  1  0.77880972  0.09273048  0.09675564  1
  N  N46  1  0.55376108  0.20446180  0.85312281  1
  N  N47  1  0.44512638  0.09273052  0.59675543  1
  N  N48  1  0.22106893  0.54118874  0.35437768  1
  N  N49  1  0.11040795  0.42770859  0.10382605  1
  N  N50  1  0.88846340  0.54078501  0.85364035  1
  N  N51  1  0.77855013  0.42770887  0.60382606  1
  N  N52  1  0.55604096  0.53834266  0.35178361  1
  N  N53  1  0.44464125  0.42723334  0.10342760  1
  N  N54  1  0.22228297  0.53834280  0.85178347  1
  N  N55  1  0.11148884  0.42669820  0.60245350  1
  N  N56  1  0.88741867  0.54078501  0.35364041  1
  N  N57  1  0.77847986  0.42669784  0.10245349  1
  N  N58  1  0.55440939  0.54118800  0.85437782  1
  N  N59  1  0.44479169  0.42723342  0.60342755  1
  N  N60  1  0.22065619  0.87119212  0.35304987  1
  N  N61  1  0.10838742  0.76244378  0.09785348  1
  N  N62  1  0.88776135  0.87131873  0.83162612  1
  N  N63  1  0.78916935  0.77423941  0.60546432  1
  N  N64  1  0.55758615  0.87131880  0.33162614  1
  N  N65  1  0.45656931  0.77392992  0.10987676  1
  N  N66  1  0.22481815  0.87119198  0.85304988  1
  N  N67  1  0.08616703  0.77393050  0.60987682  1
  N  N68  1  0.88896151  0.87262272  0.34807561  1
  N  N69  1  0.75325777  0.77423896  0.10546437  1
  N  N70  1  0.55508197  0.87262257  0.84807559  1
  N  N71  1  0.44583515  0.76244374  0.59785367  1
