# generated using pymatgen
data_Al17BN18
_symmetry_space_group_name_H-M   'P 1'
_cell_length_a   9.33971328
_cell_length_b   9.29942957
_cell_length_c   10.27023407
_cell_angle_alpha   89.61414556
_cell_angle_beta   90.17184931
_cell_angle_gamma   59.75638076
_symmetry_Int_Tables_number   1
_chemical_formula_structural   Al17BN18
_chemical_formula_sum   'Al34 B2 N36'
_cell_volume   770.56222228
_cell_formula_units_Z   2
loop_
 _symmetry_equiv_pos_site_id
 _symmetry_equiv_pos_as_xyz
  1  'x, y, z'
loop_
 _atom_site_type_symbol
 _atom_site_label
 _atom_site_symmetry_multiplicity
 _atom_site_fract_x
 _atom_site_fract_y
 _atom_site_fract_z
 _atom_site_occupancy
  Al  Al0  1  0.11241831  0.09551677  0.39026122  1
  Al  Al1  1  0.22942187  0.19564969  0.13807315  1
  Al  Al2  1  0.77593764  0.09882476  0.89710407  1
  Al  Al3  1  0.89437665  0.19282761  0.63839476  1
  Al  Al4  1  0.44214178  0.09981018  0.39669781  1
  Al  Al5  1  0.56217564  0.19180683  0.14393874  1
  Al  Al6  1  0.10968213  0.09393967  0.89235925  1
  Al  Al7  1  0.22308396  0.20210431  0.64372493  1
  Al  Al8  1  0.78240420  0.08325860  0.38806352  1
  Al  Al9  1  0.89310667  0.19913784  0.14540804  1
  Al  Al10  1  0.44972733  0.08541963  0.88538225  1
  Al  Al11  1  0.56266904  0.19219501  0.64353035  1
  Al  Al12  1  0.10705388  0.43597765  0.31741361  1
  Al  Al13  1  0.22461839  0.53889455  0.06574123  1
  Al  Al14  1  0.77548871  0.43269035  0.81726072  1
  Al  Al15  1  0.89132199  0.54504902  0.56595344  1
  Al  Al16  1  0.44171076  0.43344843  0.31973164  1
  Al  Al17  1  0.56118460  0.53590280  0.06891513  1
  Al  Al18  1  0.10685918  0.43345893  0.82200549  1
  Al  Al19  1  0.21514924  0.54374221  0.56986216  1
  Al  Al20  1  0.77396595  0.43446479  0.32197003  1
  Al  Al21  1  0.88030702  0.54385326  0.06709389  1
  Al  Al22  1  0.44157569  0.43189263  0.81971204  1
  Al  Al23  1  0.55800460  0.52901481  0.57073297  1
  Al  Al24  1  0.11103546  0.75850535  0.31135639  1
  Al  Al25  1  0.23686572  0.87489969  0.13825868  1
  Al  Al26  1  0.78255532  0.76447906  0.81811191  1
  Al  Al27  1  0.43953378  0.76699112  0.39880862  1
  Al  Al28  1  0.10029099  0.76302403  0.82955918  1
  Al  Al29  1  0.21588533  0.87722057  0.64081741  1
  Al  Al30  1  0.76541757  0.76684384  0.31660536  1
  Al  Al31  1  0.88553801  0.87196399  0.09659819  1
  Al  Al32  1  0.44622090  0.76606337  0.87006884  1
  Al  Al33  1  0.55815848  0.87499065  0.60630594  1
  B  B34  1  0.89150439  0.86921152  0.60720968  1
  B  B35  1  0.55595278  0.86910903  0.09669416  1
  N  N36  1  0.22637459  0.20074831  0.32561885  1
  N  N37  1  0.11012689  0.09644064  0.07750213  1
  N  N38  1  0.89190991  0.19681603  0.82590121  1
  N  N39  1  0.79329729  0.06234577  0.58232708  1
  N  N40  1  0.55891996  0.19867481  0.33104536  1
  N  N41  1  0.46140023  0.06345022  0.07914498  1
  N  N42  1  0.22493390  0.19913964  0.83335628  1
  N  N43  1  0.11121570  0.09672881  0.57628983  1
  N  N44  1  0.89134556  0.19882902  0.33406246  1
  N  N45  1  0.77352397  0.10656078  0.08044393  1
  N  N46  1  0.56011337  0.19690498  0.83082917  1
  N  N47  1  0.43564421  0.10836959  0.58090720  1
  N  N48  1  0.22176979  0.54036685  0.38375357  1
  N  N49  1  0.10593965  0.43701917  0.12747557  1
  N  N50  1  0.88588964  0.54034338  0.88106211  1
  N  N51  1  0.77716829  0.43430050  0.62926099  1
  N  N52  1  0.55790687  0.53237682  0.38355241  1
  N  N53  1  0.44293391  0.43198110  0.13052318  1
  N  N54  1  0.22317034  0.53715050  0.88033999  1
  N  N55  1  0.10610668  0.43542491  0.63342019  1
  N  N56  1  0.88821411  0.54129047  0.38016345  1
  N  N57  1  0.77629131  0.43342129  0.13389105  1
  N  N58  1  0.55862165  0.53233562  0.88183354  1
  N  N59  1  0.43991174  0.43153909  0.63231454  1
  N  N60  1  0.22795958  0.87487419  0.32710252  1
  N  N61  1  0.12164415  0.75718648  0.12229411  1
  N  N62  1  0.88869113  0.86513365  0.89547431  1
  N  N63  1  0.80032750  0.77503462  0.62592674  1
  N  N64  1  0.56202179  0.86977844  0.39227011  1
  N  N65  1  0.46006873  0.77944312  0.07674655  1
  N  N66  1  0.22127680  0.87357270  0.82850170  1
  N  N67  1  0.07789843  0.77699119  0.62990760  1
  N  N68  1  0.88622502  0.87233590  0.32141590  1
  N  N69  1  0.74060933  0.77490481  0.12248490  1
  N  N70  1  0.55371156  0.87329520  0.81121775  1
  N  N71  1  0.43462334  0.76044770  0.58847702  1
