# generated using pymatgen
data_Al17BN18
_symmetry_space_group_name_H-M   'P 1'
_cell_length_a   9.32620197
_cell_length_b   9.31064864
_cell_length_c   10.13081371
_cell_angle_alpha   89.82311866
_cell_angle_beta   90.08290237
_cell_angle_gamma   60.02737850
_symmetry_Int_Tables_number   1
_chemical_formula_structural   Al17BN18
_chemical_formula_sum   'Al34 B2 N36'
_cell_volume   762.03480750
_cell_formula_units_Z   2
loop_
 _symmetry_equiv_pos_site_id
 _symmetry_equiv_pos_as_xyz
  1  'x, y, z'
loop_
 _atom_site_type_symbol
 _atom_site_label
 _atom_site_symmetry_multiplicity
 _atom_site_fract_x
 _atom_site_fract_y
 _atom_site_fract_z
 _atom_site_occupancy
  Al  Al0  1  0.11397854  0.09330135  0.38895710  1
  Al  Al1  1  0.22601390  0.20027719  0.13639818  1
  Al  Al2  1  0.77693235  0.09656242  0.89359414  1
  Al  Al3  1  0.89311579  0.19406367  0.63305557  1
  Al  Al4  1  0.44393660  0.09603963  0.39326013  1
  Al  Al5  1  0.55789543  0.19930646  0.13915030  1
  Al  Al6  1  0.11047185  0.09328428  0.88850058  1
  Al  Al7  1  0.21950759  0.20843643  0.64135858  1
  Al  Al8  1  0.78109576  0.08440225  0.38029433  1
  Al  Al9  1  0.89308720  0.20071730  0.14029429  1
  Al  Al10  1  0.45057860  0.08511910  0.87986579  1
  Al  Al11  1  0.55902183  0.19937964  0.63913695  1
  Al  Al12  1  0.11890739  0.42333842  0.38682555  1
  Al  Al13  1  0.22470470  0.53721007  0.14161032  1
  Al  Al14  1  0.78145448  0.42888864  0.82068641  1
  Al  Al15  1  0.88382947  0.54902181  0.56392561  1
  Al  Al16  1  0.44661225  0.42652728  0.38873403  1
  Al  Al17  1  0.55135146  0.54571290  0.13433099  1
  Al  Al18  1  0.11801519  0.42578019  0.88856064  1
  Al  Al19  1  0.21466377  0.54279381  0.63642555  1
  Al  Al20  1  0.77943487  0.43123856  0.32510337  1
  Al  Al21  1  0.87397175  0.54847267  0.06362105  1
  Al  Al22  1  0.44423629  0.42626244  0.88868378  1
  Al  Al23  1  0.54628213  0.54153455  0.63936607  1
  Al  Al24  1  0.10514270  0.76413415  0.37815618  1
  Al  Al25  1  0.22962049  0.87435059  0.13947674  1
  Al  Al26  1  0.78589413  0.76524051  0.81298879  1
  Al  Al27  1  0.44284189  0.75982031  0.39437838  1
  Al  Al28  1  0.11498471  0.75870859  0.89419469  1
  Al  Al29  1  0.21222262  0.87496874  0.63965084  1
  Al  Al30  1  0.76651775  0.76561939  0.31231669  1
  Al  Al31  1  0.88598973  0.87445118  0.10481378  1
  Al  Al32  1  0.44761080  0.76449921  0.87928505  1
  Al  Al33  1  0.55509965  0.87584568  0.60643617  1
  B  B34  1  0.89114452  0.86997980  0.59458768  1
  B  B35  1  0.55428522  0.87164600  0.09458026  1
  N  N36  1  0.22478156  0.20365319  0.32438545  1
  N  N37  1  0.11146599  0.09437343  0.07678316  1
  N  N38  1  0.89205801  0.19716369  0.82414908  1
  N  N39  1  0.79239061  0.06180946  0.57679816  1
  N  N40  1  0.55566635  0.20407210  0.32783439  1
  N  N41  1  0.46029327  0.06330390  0.07711899  1
  N  N42  1  0.22257291  0.20485641  0.83025905  1
  N  N43  1  0.11253102  0.09480283  0.57699955  1
  N  N44  1  0.89221791  0.19926421  0.33290797  1
  N  N45  1  0.77313568  0.10598337  0.08033745  1
  N  N46  1  0.55741160  0.20401871  0.82773214  1
  N  N47  1  0.43625310  0.10652341  0.58075010  1
  N  N48  1  0.22437266  0.53807217  0.32981369  1
  N  N49  1  0.11526185  0.42683595  0.07874397  1
  N  N50  1  0.88460053  0.54428711  0.87415886  1
  N  N51  1  0.77776654  0.43155292  0.61981423  1
  N  N52  1  0.54765992  0.54409636  0.32588632  1
  N  N53  1  0.44465305  0.42508740  0.07758661  1
  N  N54  1  0.22201811  0.54035053  0.82445472  1
  N  N55  1  0.11477275  0.42535564  0.57647463  1
  N  N56  1  0.88563505  0.54550623  0.37417906  1
  N  N57  1  0.78013563  0.42919696  0.12331537  1
  N  N58  1  0.55021983  0.54040954  0.83134397  1
  N  N59  1  0.44428208  0.42537365  0.57768932  1
  N  N60  1  0.22415214  0.87239083  0.32775791  1
  N  N61  1  0.12648573  0.75579622  0.08224108  1
  N  N62  1  0.88751195  0.86847473  0.88765565  1
  N  N63  1  0.80205213  0.77490496  0.62026245  1
  N  N64  1  0.56138656  0.86886880  0.38672232  1
  N  N65  1  0.45837826  0.77765098  0.07545325  1
  N  N66  1  0.22098927  0.87178360  0.82801945  1
  N  N67  1  0.08052041  0.77693043  0.57594680  1
  N  N68  1  0.89150242  0.87138386  0.30958738  1
  N  N69  1  0.73859346  0.77645426  0.11895351  1
  N  N70  1  0.55427069  0.87155640  0.81018021  1
  N  N71  1  0.43267847  0.75865939  0.58166228  1
