# generated using pymatgen
data_ScAl17N18
_symmetry_space_group_name_H-M   'P 1'
_cell_length_a   9.49589660
_cell_length_b   9.49421946
_cell_length_c   9.99897071
_cell_angle_alpha   90.00000291
_cell_angle_beta   89.98537641
_cell_angle_gamma   60.00565791
_symmetry_Int_Tables_number   1
_chemical_formula_structural   ScAl17N18
_chemical_formula_sum   'Sc2 Al34 N36'
_cell_volume   780.73906455
_cell_formula_units_Z   2
loop_
 _symmetry_equiv_pos_site_id
 _symmetry_equiv_pos_as_xyz
  1  'x, y, z'
loop_
 _atom_site_type_symbol
 _atom_site_label
 _atom_site_symmetry_multiplicity
 _atom_site_fract_x
 _atom_site_fract_y
 _atom_site_fract_z
 _atom_site_occupancy
  Al  Al0  1  0.11374044  0.09082967  0.40967272  1
  Al  Al1  1  0.22234939  0.20549197  0.15941674  1
  Al  Al2  1  0.77660486  0.09453061  0.91336127  1
  Al  Al3  1  0.88841736  0.20801718  0.66438448  1
  Al  Al4  1  0.44422195  0.09455568  0.40916885  1
  Al  Al5  1  0.55385899  0.20636555  0.15913919  1
  Al  Al6  1  0.11269284  0.09361787  0.90916636  1
  Al  Al7  1  0.22245251  0.20544043  0.65906488  1
  Al  Al8  1  0.77594190  0.09644742  0.40619568  1
  Al  Al9  1  0.89222742  0.20086987  0.15586866  1
  Al  Al10  1  0.44426365  0.09453484  0.90918691  1
  Al  Al11  1  0.55295950  0.20933601  0.65947123  1
  Al  Al12  1  0.11374050  0.42876344  0.40967276  1
  Al  Al13  1  0.22311081  0.53714554  0.15952679  1
  Al  Al14  1  0.77718645  0.42807346  0.91085287  1
  Al  Al15  1  0.88841728  0.53689865  0.66438450  1
  Al  Al16  1  0.44046255  0.42883171  0.40995956  1
  Al  Al17  1  0.54981449  0.54175931  0.15647378  1
  Al  Al18  1  0.11269285  0.42702276  0.90916632  1
  Al  Al19  1  0.22587851  0.53664686  0.65989343  1
  Al  Al20  1  0.89222750  0.54023596  0.15586861  1
  Al  Al21  1  0.44373949  0.42741024  0.90945788  1
  Al  Al22  1  0.55428693  0.53952311  0.66320765  1
  Al  Al23  1  0.11720256  0.75806553  0.40549924  1
  Al  Al24  1  0.22311079  0.87307696  0.15952675  1
  Al  Al25  1  0.77660483  0.76219792  0.91336124  1
  Al  Al26  1  0.44046247  0.76403911  0.40995947  1
  Al  Al27  1  0.55385901  0.87310860  0.15913913  1
  Al  Al28  1  0.11207333  0.76063006  0.91356652  1
  Al  Al29  1  0.22587846  0.87080803  0.65989340  1
  Al  Al30  1  0.77594190  0.76094418  0.40619562  1
  Al  Al31  1  0.88855512  0.87238907  0.16130205  1
  Al  Al32  1  0.44373948  0.76218362  0.90945787  1
  Al  Al33  1  0.55295940  0.87103766  0.65947117  1
  Sc  Sc34  1  0.77766512  0.42783438  0.40331814  1
  Sc  Sc35  1  0.88924223  0.87204529  0.65092820  1
  N  N36  1  0.22157441  0.20587935  0.35270996  1
  N  N37  1  0.11348827  0.09369856  0.09983427  1
  N  N38  1  0.88937188  0.20405237  0.85663199  1
  N  N39  1  0.76760683  0.11604833  0.59617415  1
  N  N40  1  0.55367760  0.20685529  0.35078959  1
  N  N41  1  0.44389874  0.09471742  0.10144283  1
  N  N42  1  0.22263345  0.20534980  0.85077026  1
  N  N43  1  0.11053672  0.09415612  0.60314561  1
  N  N44  1  0.90041305  0.18579638  0.34435826  1
  N  N45  1  0.77586903  0.09465389  0.10408820  1
  N  N46  1  0.55567151  0.20524904  0.85191556  1
  N  N47  1  0.44529360  0.09402000  0.60186989  1
  N  N48  1  0.22310773  0.53683585  0.35029849  1
  N  N49  1  0.11348833  0.42614688  0.09983420  1
  N  N50  1  0.88937186  0.53990872  0.85663199  1
  N  N51  1  0.77759237  0.42787060  0.61661500  1
  N  N52  1  0.53452922  0.54940181  0.34633537  1
  N  N53  1  0.44357989  0.42691330  0.10001953  1
  N  N54  1  0.22192524  0.53962793  0.85212996  1
  N  N55  1  0.11053667  0.42864101  0.60314569  1
  N  N56  1  0.90041324  0.54712366  0.34435814  1
  N  N57  1  0.77718804  0.42807283  0.10704627  1
  N  N58  1  0.55405007  0.53964142  0.85525398  1
  N  N59  1  0.44460946  0.42807332  0.60248303  1
  N  N60  1  0.22310767  0.87338958  0.35029842  1
  N  N61  1  0.11217643  0.76057864  0.10592020  1
  N  N62  1  0.88937077  0.87198107  0.86410204  1
  N  N63  1  0.76760667  0.74967839  0.59617404  1
  N  N64  1  0.55367761  0.87279996  0.35078953  1
  N  N65  1  0.44357989  0.76284037  0.10001953  1
  N  N66  1  0.22192523  0.87177991  0.85212995  1
  N  N67  1  0.13236733  0.75048325  0.59534016  1
  N  N68  1  0.88905286  0.87214012  0.35821230  1
  N  N69  1  0.77586903  0.76281078  0.10408816  1
  N  N70  1  0.55567148  0.87241236  0.85191554  1
  N  N71  1  0.44460941  0.76065079  0.60248297  1
