# generated using pymatgen
data_ScAl17N18
_symmetry_space_group_name_H-M   'P 1'
_cell_length_a   9.49499249
_cell_length_b   9.49329576
_cell_length_c   10.00131811
_cell_angle_alpha   89.99999592
_cell_angle_beta   89.98554470
_cell_angle_gamma   60.00594398
_symmetry_Int_Tables_number   1
_chemical_formula_structural   ScAl17N18
_chemical_formula_sum   'Sc2 Al34 N36'
_cell_volume   780.77428385
_cell_formula_units_Z   2
loop_
 _symmetry_equiv_pos_site_id
 _symmetry_equiv_pos_as_xyz
  1  'x, y, z'
loop_
 _atom_site_type_symbol
 _atom_site_label
 _atom_site_symmetry_multiplicity
 _atom_site_fract_x
 _atom_site_fract_y
 _atom_site_fract_z
 _atom_site_occupancy
  Al  Al0  1  0.11366583  0.09068242  0.31819385  1
  Al  Al1  1  0.22236050  0.20548640  0.06846950  1
  Al  Al2  1  0.77441149  0.09912822  0.82178645  1
  Al  Al3  1  0.89067431  0.20358900  0.57147489  1
  Al  Al4  1  0.44417681  0.09457817  0.31858524  1
  Al  Al5  1  0.55393699  0.20640284  0.06848252  1
  Al  Al6  1  0.11276735  0.09365427  0.81850923  1
  Al  Al7  1  0.22240525  0.20546404  0.56848126  1
  Al  Al8  1  0.77820401  0.09201517  0.31327592  1
  Al  Al9  1  0.89002733  0.20547644  0.06428690  1
  Al  Al10  1  0.44427599  0.09452861  0.81823881  1
  Al  Al11  1  0.55288967  0.20918520  0.56799105  1
  Al  Al12  1  0.11366580  0.42898505  0.31819382  1
  Al  Al13  1  0.22289028  0.53783387  0.06819281  1
  Al  Al14  1  0.77807044  0.42763151  0.81638130  1
  Al  Al15  1  0.89067437  0.53907024  0.57147480  1
  Al  Al16  1  0.44075360  0.42920859  0.31777279  1
  Al  Al17  1  0.55454274  0.53939532  0.06409010  1
  Al  Al18  1  0.11276731  0.42691168  0.81850922  1
  Al  Al19  1  0.22616313  0.53598468  0.56770505  1
  Al  Al20  1  0.89002733  0.53782958  0.06428689  1
  Al  Al21  1  0.44351876  0.42694533  0.81812242  1
  Al  Al22  1  0.54945063  0.54194141  0.57215884  1
  Al  Al23  1  0.11235463  0.76048931  0.31444180  1
  Al  Al24  1  0.22289037  0.87260910  0.06819280  1
  Al  Al25  1  0.77441161  0.75979356  0.82178638  1
  Al  Al26  1  0.44075364  0.76337114  0.31777273  1
  Al  Al27  1  0.55393709  0.87299339  0.06848244  1
  Al  Al28  1  0.11679295  0.75827016  0.82118999  1
  Al  Al29  1  0.22616326  0.87118546  0.56770505  1
  Al  Al30  1  0.77820401  0.76311408  0.31327586  1
  Al  Al31  1  0.88943943  0.87194690  0.06682912  1
  Al  Al32  1  0.44351884  0.76286922  0.81812237  1
  Al  Al33  1  0.55288987  0.87125837  0.56799099  1
  Sc  Sc34  1  0.77739471  0.42796934  0.32665632  1
  Sc  Sc35  1  0.88896795  0.87218282  0.57426536  1
  N  N36  1  0.22133723  0.20599808  0.37581811  1
  N  N37  1  0.11095344  0.09476870  0.12578329  1
  N  N38  1  0.89076204  0.20535414  0.87360291  1
  N  N39  1  0.76622693  0.11419811  0.63333369  1
  N  N40  1  0.55609096  0.20585980  0.37455463  1
  N  N41  1  0.44399608  0.09466851  0.12691482  1
  N  N42  1  0.22272496  0.20530420  0.87624915  1
  N  N43  1  0.11294862  0.09316677  0.62689698  1
  N  N44  1  0.89901035  0.18398954  0.38153215  1
  N  N45  1  0.77725100  0.09597602  0.12107175  1
  N  N46  1  0.55314397  0.20632083  0.87784992  1
  N  N47  1  0.44504744  0.09414286  0.62498455  1
  N  N48  1  0.22201968  0.53937187  0.37521836  1
  N  N49  1  0.11095340  0.42761107  0.12578330  1
  N  N50  1  0.89076208  0.53721723  0.87360294  1
  N  N51  1  0.77757323  0.42788013  0.61953029  1
  N  N52  1  0.53429078  0.54952133  0.38235343  1
  N  N53  1  0.44470160  0.42823799  0.12556987  1
  N  N54  1  0.22304865  0.53717841  0.87766614  1
  N  N55  1  0.11294860  0.42721782  0.62689700  1
  N  N56  1  0.89901037  0.55033354  0.38153216  1
  N  N57  1  0.77725976  0.42803673  0.11354540  1
  N  N58  1  0.55444276  0.53944533  0.87178069  1
  N  N59  1  0.44352492  0.42663205  0.62738840  1
  N  N60  1  0.22201971  0.87194179  0.37521836  1
  N  N61  1  0.11258748  0.76037287  0.12243893  1
  N  N62  1  0.88943842  0.87194750  0.87069088  1
  N  N63  1  0.76622712  0.75290840  0.63333372  1
  N  N64  1  0.55609104  0.87138253  0.37455460  1
  N  N65  1  0.44470165  0.76039365  0.12556984  1
  N  N66  1  0.22304873  0.87310626  0.87766613  1
  N  N67  1  0.13207688  0.75062820  0.63136570  1
  N  N68  1  0.88904097  0.87214618  0.36103272  1
  N  N69  1  0.77725104  0.76010612  0.12107171  1
  N  N70  1  0.55314411  0.87386849  0.87784987  1
  N  N71  1  0.44352500  0.76317633  0.62738845  1
