# generated using pymatgen
data_ScAl17N18
_symmetry_space_group_name_H-M   'P 1'
_cell_length_a   9.64493380
_cell_length_b   9.64181161
_cell_length_c   9.57980845
_cell_angle_alpha   90.00001328
_cell_angle_beta   89.98633188
_cell_angle_gamma   60.01352478
_symmetry_Int_Tables_number   1
_chemical_formula_structural   ScAl17N18
_chemical_formula_sum   'Sc2 Al34 N36'
_cell_volume   771.62182885
_cell_formula_units_Z   2
loop_
 _symmetry_equiv_pos_site_id
 _symmetry_equiv_pos_as_xyz
  1  'x, y, z'
loop_
 _atom_site_type_symbol
 _atom_site_label
 _atom_site_symmetry_multiplicity
 _atom_site_fract_x
 _atom_site_fract_y
 _atom_site_fract_z
 _atom_site_occupancy
  Al  Al0  1  0.11366262  0.09053014  0.38123047  1
  Al  Al1  1  0.22208685  0.20562382  0.13085016  1
  Al  Al2  1  0.77656080  0.09377429  0.88213910  1
  Al  Al3  1  0.88776006  0.20901597  0.63477523  1
  Al  Al4  1  0.44451425  0.09440932  0.37892478  1
  Al  Al5  1  0.55361413  0.20657463  0.12878197  1
  Al  Al6  1  0.11331502  0.09382175  0.87828839  1
  Al  Al7  1  0.22288954  0.20522226  0.62829099  1
  Al  Al8  1  0.77513547  0.09792846  0.37650691  1
  Al  Al9  1  0.89346878  0.19900342  0.12415750  1
  Al  Al10  1  0.44369772  0.09481705  0.88023280  1
  Al  Al11  1  0.55277749  0.20897658  0.63062197  1
  Al  Al12  1  0.11366177  0.42913813  0.38123046  1
  Al  Al13  1  0.22346199  0.53616099  0.12900771  1
  Al  Al14  1  0.77655422  0.42838863  0.88214558  1
  Al  Al15  1  0.88776076  0.53655954  0.63477532  1
  Al  Al16  1  0.44020502  0.42862577  0.38133764  1
  Al  Al17  1  0.54778540  0.54277550  0.12684743  1
  Al  Al18  1  0.11331483  0.42619441  0.87828893  1
  Al  Al19  1  0.22579274  0.53712041  0.63128729  1
  Al  Al20  1  0.89346786  0.54086288  0.12415761  1
  Al  Al21  1  0.44394615  0.42739415  0.87891904  1
  Al  Al22  1  0.55517639  0.53907991  0.63193410  1
  Al  Al23  1  0.11909465  0.75711751  0.37395813  1
  Al  Al24  1  0.22346211  0.87371149  0.12900776  1
  Al  Al25  1  0.77656092  0.76299652  0.88213946  1
  Al  Al26  1  0.44020533  0.76450184  0.38133813  1
  Al  Al27  1  0.55361392  0.87314707  0.12878254  1
  Al  Al28  1  0.11138121  0.76097496  0.88413616  1
  Al  Al29  1  0.22579308  0.87042070  0.63128717  1
  Al  Al30  1  0.77513552  0.76026718  0.37650682  1
  Al  Al31  1  0.88809659  0.87261926  0.13206258  1
  Al  Al32  1  0.44394623  0.76199157  0.87891864  1
  Al  Al33  1  0.55277871  0.87158138  0.63062188  1
  Sc  Sc34  1  0.77818976  0.42756908  0.36488689  1
  Sc  Sc35  1  0.89018169  0.87157863  0.61378946  1
  N  N36  1  0.22113429  0.20610158  0.33158157  1
  N  N37  1  0.11436578  0.09384635  0.07616769  1
  N  N38  1  0.88898297  0.20493051  0.83545883  1
  N  N39  1  0.76687467  0.11697516  0.57504589  1
  N  N40  1  0.55347432  0.20727442  0.32776328  1
  N  N41  1  0.44322800  0.09505054  0.07973808  1
  N  N42  1  0.22331277  0.20501251  0.82702164  1
  N  N43  1  0.11034276  0.09382404  0.58195214  1
  N  N44  1  0.90161567  0.18404799  0.32110086  1
  N  N45  1  0.77579252  0.09386783  0.08094166  1
  N  N46  1  0.55515784  0.20502103  0.83017034  1
  N  N47  1  0.44564989  0.09383956  0.57873287  1
  N  N48  1  0.22365355  0.53575541  0.32718251  1
  N  N49  1  0.11436484  0.42511615  0.07616845  1
  N  N50  1  0.88898300  0.53942472  0.83545902  1
  N  N51  1  0.77804534  0.42764202  0.58960259  1
  N  N52  1  0.53287285  0.55023369  0.32510102  1
  N  N53  1  0.44361849  0.42689394  0.07666150  1
  N  N54  1  0.22176720  0.54002885  0.83058676  1
  N  N55  1  0.11034316  0.42916015  0.58195176  1
  N  N56  1  0.90161378  0.54767427  0.32110184  1
  N  N57  1  0.77663486  0.42834676  0.08767338  1
  N  N58  1  0.55476454  0.53928691  0.83218716  1
  N  N59  1  0.44435300  0.42765434  0.58125558  1
  N  N60  1  0.22365371  0.87392781  0.32718304  1
  N  N61  1  0.11163091  0.76084861  0.08473673  1
  N  N62  1  0.88988145  0.87172840  0.83780826  1
  N  N63  1  0.76687660  0.74947916  0.57504662  1
  N  N64  1  0.55347438  0.87259096  0.32776401  1
  N  N65  1  0.44361825  0.76281714  0.07666109  1
  N  N66  1  0.22176722  0.87154124  0.83058625  1
  N  N67  1  0.13417874  0.74957397  0.57220166  1
  N  N68  1  0.88857692  0.87238031  0.33857632  1
  N  N69  1  0.77579245  0.76366789  0.08094220  1
  N  N70  1  0.55515820  0.87315946  0.83016996  1
  N  N71  1  0.44435340  0.76132209  0.58125600  1
