# generated using pymatgen
data_ScAl17N18
_symmetry_space_group_name_H-M   'P 1'
_cell_length_a   9.93428501
_cell_length_b   9.92957768
_cell_length_c   8.69111887
_cell_angle_alpha   89.99999979
_cell_angle_beta   89.99610694
_cell_angle_gamma   60.01573915
_symmetry_Int_Tables_number   1
_chemical_formula_structural   ScAl17N18
_chemical_formula_sum   'Sc2 Al34 N36'
_cell_volume   742.57884031
_cell_formula_units_Z   2
loop_
 _symmetry_equiv_pos_site_id
 _symmetry_equiv_pos_as_xyz
  1  'x, y, z'
loop_
 _atom_site_type_symbol
 _atom_site_label
 _atom_site_symmetry_multiplicity
 _atom_site_fract_x
 _atom_site_fract_y
 _atom_site_fract_z
 _atom_site_occupancy
  Al  Al0  1  0.11370929  0.09076979  0.36709352  1
  Al  Al1  1  0.22191262  0.20571041  0.11729904  1
  Al  Al2  1  0.77519930  0.09630023  0.86767330  1
  Al  Al3  1  0.88933524  0.20651524  0.62123452  1
  Al  Al4  1  0.44488423  0.09422449  0.36358351  1
  Al  Al5  1  0.55335840  0.20689730  0.11371910  1
  Al  Al6  1  0.11381133  0.09395621  0.86397150  1
  Al  Al7  1  0.22337307  0.20498018  0.61333962  1
  Al  Al8  1  0.77596640  0.09594073  0.35846372  1
  Al  Al9  1  0.89273112  0.20122059  0.10765214  1
  Al  Al10  1  0.44326008  0.09503659  0.86683447  1
  Al  Al11  1  0.55262246  0.20829971  0.61653654  1
  Al  Al12  1  0.11370921  0.42885427  0.36709357  1
  Al  Al13  1  0.22365619  0.53584558  0.11379021  1
  Al  Al14  1  0.77637681  0.42847822  0.86219380  1
  Al  Al15  1  0.88933522  0.53748294  0.62123451  1
  Al  Al16  1  0.44054321  0.42817353  0.36640399  1
  Al  Al17  1  0.54997257  0.54168040  0.11034798  1
  Al  Al18  1  0.11381132  0.42556579  0.86397145  1
  Al  Al19  1  0.22520551  0.53725481  0.61780578  1
  Al  Al20  1  0.89273110  0.53938171  0.10765212  1
  Al  Al21  1  0.44392875  0.42736651  0.86463093  1
  Al  Al22  1  0.55249983  0.54041676  0.61719507  1
  Al  Al23  1  0.11682698  0.75825315  0.35702616  1
  Al  Al24  1  0.22365622  0.87383165  0.11379022  1
  Al  Al25  1  0.77519930  0.76183372  0.86767324  1
  Al  Al26  1  0.44054323  0.76461645  0.36640399  1
  Al  Al27  1  0.55335841  0.87307763  0.11371905  1
  Al  Al28  1  0.11383570  0.75974881  0.87104058  1
  Al  Al29  1  0.22520550  0.87087315  0.61780577  1
  Al  Al30  1  0.77596641  0.76142613  0.35846373  1
  Al  Al31  1  0.88824069  0.87254635  0.11016411  1
  Al  Al32  1  0.44392875  0.76203796  0.86463091  1
  Al  Al33  1  0.55262250  0.87241116  0.61653658  1
  Sc  Sc34  1  0.77809488  0.42761911  0.35509817  1
  Sc  Sc35  1  0.89024679  0.87154340  0.60535704  1
  N  N36  1  0.22113579  0.20609886  0.34740188  1
  N  N37  1  0.11438865  0.09428933  0.09002450  1
  N  N38  1  0.88993507  0.20428426  0.85053723  1
  N  N39  1  0.76809407  0.11335912  0.59370889  1
  N  N40  1  0.55380261  0.20719959  0.34182584  1
  N  N41  1  0.44269139  0.09532091  0.09541857  1
  N  N42  1  0.22384530  0.20474408  0.84012499  1
  N  N43  1  0.11091354  0.09348809  0.59735010  1
  N  N44  1  0.89997008  0.18716443  0.33774947  1
  N  N45  1  0.77535134  0.09522281  0.09517977  1
  N  N46  1  0.55415313  0.20513715  0.84579437  1
  N  N47  1  0.44579902  0.09376707  0.59218084  1
  N  N48  1  0.22349157  0.53597689  0.34111082  1
  N  N49  1  0.11438862  0.42465531  0.09002447  1
  N  N50  1  0.88993505  0.53911408  0.85053723  1
  N  N51  1  0.77821096  0.42756115  0.60827254  1
  N  N52  1  0.53586629  0.54873354  0.34326881  1
  N  N53  1  0.44392580  0.42720941  0.09071385  1
  N  N54  1  0.22192136  0.53964506  0.84601471  1
  N  N55  1  0.11091352  0.42893167  0.59735013  1
  N  N56  1  0.89997000  0.54619891  0.33774951  1
  N  N57  1  0.77623186  0.42855069  0.09324384  1
  N  N58  1  0.55374633  0.53979353  0.84586137  1
  N  N59  1  0.44381100  0.42718266  0.59681472  1
  N  N60  1  0.22349159  0.87386497  0.34111083  1
  N  N61  1  0.11285329  0.76024000  0.09934923  1
  N  N62  1  0.89016375  0.87158484  0.85743815  1
  N  N63  1  0.76809412  0.75188011  0.59370900  1
  N  N64  1  0.55380265  0.87233115  0.34182582  1
  N  N65  1  0.44392579  0.76219799  0.09071385  1
  N  N66  1  0.22192135  0.87176706  0.84601471  1
  N  N67  1  0.13082165  0.75125582  0.58868453  1
  N  N68  1  0.88841724  0.87245808  0.34346709  1
  N  N69  1  0.77535136  0.76275909  0.09517975  1
  N  N70  1  0.55415311  0.87404312  0.84579441  1
  N  N71  1  0.44381101  0.76233953  0.59681474  1
