# generated using pymatgen
data_ScAl17N18
_symmetry_space_group_name_H-M   'P 1'
_cell_length_a   9.69936638
_cell_length_b   9.69587273
_cell_length_c   9.41812343
_cell_angle_alpha   90.00000048
_cell_angle_beta   89.98787497
_cell_angle_gamma   60.01424001
_symmetry_Int_Tables_number   1
_chemical_formula_structural   ScAl17N18
_chemical_formula_sum   'Sc2 Al34 N36'
_cell_volume   767.16285592
_cell_formula_units_Z   2
loop_
 _symmetry_equiv_pos_site_id
 _symmetry_equiv_pos_as_xyz
  1  'x, y, z'
loop_
 _atom_site_type_symbol
 _atom_site_label
 _atom_site_symmetry_multiplicity
 _atom_site_fract_x
 _atom_site_fract_y
 _atom_site_fract_z
 _atom_site_occupancy
  Al  Al0  1  0.11383597  0.09122919  0.32962600  1
  Al  Al1  1  0.22310727  0.20511380  0.07990958  1
  Al  Al2  1  0.77305359  0.10090881  0.83704251  1
  Al  Al3  1  0.89145769  0.20209307  0.58436212  1
  Al  Al4  1  0.44355972  0.09488621  0.33255502  1
  Al  Al5  1  0.55303123  0.20618796  0.08240268  1
  Al  Al6  1  0.11317285  0.09329175  0.83171638  1
  Al  Al7  1  0.22197158  0.20568137  0.58169543  1
  Al  Al8  1  0.77879478  0.09124571  0.32522870  1
  Al  Al9  1  0.89031998  0.20606057  0.07821919  1
  Al  Al10  1  0.44463664  0.09434769  0.82910395  1
  Al  Al11  1  0.55307659  0.20947285  0.57882670  1
  Al  Al12  1  0.11383509  0.42826638  0.32962612  1
  Al  Al13  1  0.22268869  0.53800887  0.08167290  1
  Al  Al14  1  0.77866453  0.42733353  0.82940847  1
  Al  Al15  1  0.89145757  0.53978461  0.58436227  1
  Al  Al16  1  0.44101711  0.42966127  0.32885311  1
  Al  Al17  1  0.55501126  0.53916201  0.07576734  1
  Al  Al18  1  0.11317298  0.42686675  0.83171599  1
  Al  Al19  1  0.22643529  0.53544686  0.57884287  1
  Al  Al20  1  0.89031991  0.53695445  0.07821891  1
  Al  Al21  1  0.44301137  0.42610626  0.83158506  1
  Al  Al22  1  0.54762623  0.54285501  0.58736997  1
  Al  Al23  1  0.11170048  0.76081526  0.32857575  1
  Al  Al24  1  0.22268874  0.87263724  0.08167254  1
  Al  Al25  1  0.77305424  0.75936920  0.83704256  1
  Al  Al26  1  0.44101726  0.76265386  0.32885297  1
  Al  Al27  1  0.55303134  0.87411595  0.08240235  1
  Al  Al28  1  0.11885976  0.75723550  0.83379616  1
  Al  Al29  1  0.22643547  0.87145204  0.57884330  1
  Al  Al30  1  0.77879436  0.76329079  0.32522862  1
  Al  Al31  1  0.89027110  0.87153197  0.07910438  1
  Al  Al32  1  0.44301148  0.76421430  0.83158514  1
  Al  Al33  1  0.55307727  0.87078582  0.57882671  1
  Sc  Sc34  1  0.77631783  0.42850554  0.34720187  1
  Sc  Sc35  1  0.88836023  0.87248880  0.59640108  1
  N  N36  1  0.22084006  0.20624839  0.37838729  1
  N  N37  1  0.11161740  0.09506246  0.12649586  1
  N  N38  1  0.89103253  0.20597658  0.87584502  1
  N  N39  1  0.76502717  0.11569784  0.63587730  1
  N  N40  1  0.55633846  0.20627056  0.37448225  1
  N  N41  1  0.44309564  0.09511708  0.13035265  1
  N  N42  1  0.22360359  0.20486657  0.87682479  1
  N  N43  1  0.11321494  0.09263191  0.62920075  1
  N  N44  1  0.89962237  0.18338627  0.38140485  1
  N  N45  1  0.77758122  0.09517864  0.12079312  1
  N  N46  1  0.55202848  0.20608569  0.88102377  1
  N  N47  1  0.44557833  0.09387581  0.62471793  1
  N  N48  1  0.22239557  0.53849805  0.37523005  1
  N  N49  1  0.11161716  0.42664969  0.12649616  1
  N  N50  1  0.89103254  0.53632810  0.87584461  1
  N  N51  1  0.77820980  0.42756011  0.61885082  1
  N  N52  1  0.53274637  0.55029589  0.38484334  1
  N  N53  1  0.44492094  0.42854629  0.12601089  1
  N  N54  1  0.22297739  0.53724421  0.88044776  1
  N  N55  1  0.11321480  0.42748191  0.62920021  1
  N  N56  1  0.89962114  0.55032808  0.38140442  1
  N  N57  1  0.77661824  0.42835567  0.11845086  1
  N  N58  1  0.55482150  0.53925786  0.87152197  1
  N  N59  1  0.44289702  0.42593579  0.62982533  1
  N  N60  1  0.22239578  0.87244262  0.37523042  1
  N  N61  1  0.11202854  0.76065051  0.12472917  1
  N  N62  1  0.89018190  0.87157757  0.86961073  1
  N  N63  1  0.76502848  0.75260473  0.63587675  1
  N  N64  1  0.55633825  0.87072888  0.37448254  1
  N  N65  1  0.44492090  0.75986287  0.12601045  1
  N  N66  1  0.22297717  0.87311500  0.88044736  1
  N  N67  1  0.13356498  0.74988169  0.63128900  1
  N  N68  1  0.88848856  0.87242396  0.36673784  1
  N  N69  1  0.77758123  0.76056972  0.12079294  1
  N  N70  1  0.55202913  0.87522294  0.88102322  1
  N  N71  1  0.44289711  0.76449762  0.62982582  1
