# generated using pymatgen
data_ScAl17N18
_symmetry_space_group_name_H-M   'P 1'
_cell_length_a   9.49704225
_cell_length_b   9.49530993
_cell_length_c   9.99589226
_cell_angle_alpha   89.99999399
_cell_angle_beta   89.98544184
_cell_angle_gamma   60.00645961
_symmetry_Int_Tables_number   1
_chemical_formula_structural   ScAl17N18
_chemical_formula_sum   'Sc2 Al34 N36'
_cell_volume   780.68881929
_cell_formula_units_Z   2
loop_
 _symmetry_equiv_pos_site_id
 _symmetry_equiv_pos_as_xyz
  1  'x, y, z'
loop_
 _atom_site_type_symbol
 _atom_site_label
 _atom_site_symmetry_multiplicity
 _atom_site_fract_x
 _atom_site_fract_y
 _atom_site_fract_z
 _atom_site_occupancy
  Al  Al0  1  0.11367234  0.09068656  0.32236413  1
  Al  Al1  1  0.22237206  0.20548073  0.07265050  1
  Al  Al2  1  0.77438416  0.09918344  0.82598886  1
  Al  Al3  1  0.89069770  0.20355579  0.57564103  1
  Al  Al4  1  0.44417477  0.09457932  0.32278831  1
  Al  Al5  1  0.55393692  0.20639586  0.07269387  1
  Al  Al6  1  0.11276556  0.09365617  0.82271721  1
  Al  Al7  1  0.22240539  0.20546398  0.57268180  1
  Al  Al8  1  0.77822287  0.09198052  0.31748087  1
  Al  Al9  1  0.89001743  0.20550228  0.06851653  1
  Al  Al10  1  0.44428328  0.09452502  0.82242070  1
  Al  Al11  1  0.55288267  0.20919936  0.57216207  1
  Al  Al12  1  0.11367215  0.42897394  0.32236410  1
  Al  Al13  1  0.22288197  0.53784235  0.07239761  1
  Al  Al14  1  0.77807330  0.42762986  0.82051529  1
  Al  Al15  1  0.89069782  0.53908011  0.57564083  1
  Al  Al16  1  0.44074094  0.42921663  0.32193974  1
  Al  Al17  1  0.55456830  0.53938257  0.06829173  1
  Al  Al18  1  0.11276566  0.42691107  0.82271717  1
  Al  Al19  1  0.22616624  0.53597470  0.57187486  1
  Al  Al20  1  0.89001751  0.53781375  0.06851656  1
  Al  Al21  1  0.44351538  0.42693918  0.82233015  1
  Al  Al22  1  0.54939074  0.54197145  0.57635164  1
  Al  Al23  1  0.11231877  0.76050709  0.31866737  1
  Al  Al24  1  0.22288190  0.87260906  0.07239754  1
  Al  Al25  1  0.77438431  0.75976575  0.82598863  1
  Al  Al26  1  0.44074105  0.76337570  0.32193964  1
  Al  Al27  1  0.55393692  0.87300100  0.07269376  1
  Al  Al28  1  0.11684159  0.75824572  0.82536393  1
  Al  Al29  1  0.22616628  0.87119231  0.57187493  1
  Al  Al30  1  0.77822259  0.76312960  0.31748077  1
  Al  Al31  1  0.88944517  0.87194430  0.07095722  1
  Al  Al32  1  0.44351532  0.76287867  0.82233011  1
  Al  Al33  1  0.55288279  0.87125189  0.57216191  1
  Sc  Sc34  1  0.77736703  0.42798233  0.33101408  1
  Sc  Sc35  1  0.88895309  0.87219108  0.57864456  1
  N  N36  1  0.22133617  0.20599876  0.37993608  1
  N  N37  1  0.11096221  0.09477171  0.12987741  1
  N  N38  1  0.89075280  0.20538524  0.87772895  1
  N  N39  1  0.76619369  0.11426202  0.63744852  1
  N  N40  1  0.55609178  0.20586989  0.37864643  1
  N  N41  1  0.44399107  0.09467126  0.13103893  1
  N  N42  1  0.22273721  0.20529817  0.88035084  1
  N  N43  1  0.11294787  0.09316272  0.63101831  1
  N  N44  1  0.89903723  0.18395365  0.38561382  1
  N  N45  1  0.77726565  0.09594591  0.12517170  1
  N  N46  1  0.55313541  0.20632084  0.88197826  1
  N  N47  1  0.44505883  0.09413738  0.62908243  1
  N  N48  1  0.22201800  0.53936237  0.37930645  1
  N  N49  1  0.11096273  0.42759797  0.12987740  1
  N  N50  1  0.89075300  0.53719552  0.87772878  1
  N  N51  1  0.77757220  0.42787939  0.62353930  1
  N  N52  1  0.53421899  0.54955711  0.38646224  1
  N  N53  1  0.44470083  0.42824072  0.12966168  1
  N  N54  1  0.22304686  0.53718113  0.88178908  1
  N  N55  1  0.11294859  0.42722104  0.63101832  1
  N  N56  1  0.89903719  0.55034212  0.38561350  1
  N  N57  1  0.77725016  0.42804051  0.11777797  1
  N  N58  1  0.55446591  0.53943374  0.87587944  1
  N  N59  1  0.44351003  0.42662864  0.63150925  1
  N  N60  1  0.22201709  0.87195416  0.37930656  1
  N  N61  1  0.11255659  0.76038809  0.12656010  1
  N  N62  1  0.88944327  0.87194609  0.87470001  1
  N  N63  1  0.76619449  0.75287758  0.63744827  1
  N  N64  1  0.55609123  0.87137365  0.37864643  1
  N  N65  1  0.44470035  0.76039083  0.12966161  1
  N  N66  1  0.22304627  0.87310642  0.88178908  1
  N  N67  1  0.13212597  0.75060319  0.63545338  1
  N  N68  1  0.88903118  0.87215245  0.36528286  1
  N  N69  1  0.77726580  0.76012153  0.12517150  1
  N  N70  1  0.55313511  0.87387860  0.88197811  1
  N  N71  1  0.44350932  0.76319384  0.63150931  1
