# generated using pymatgen
data_ScAl17N18
_symmetry_space_group_name_H-M   'P 1'
_cell_length_a   9.64558477
_cell_length_b   9.64245187
_cell_length_c   9.57788319
_cell_angle_alpha   89.99999912
_cell_angle_beta   89.98625388
_cell_angle_gamma   60.01347148
_symmetry_Int_Tables_number   1
_chemical_formula_structural   ScAl17N18
_chemical_formula_sum   'Sc2 Al34 N36'
_cell_volume   771.56964216
_cell_formula_units_Z   2
loop_
 _symmetry_equiv_pos_site_id
 _symmetry_equiv_pos_as_xyz
  1  'x, y, z'
loop_
 _atom_site_type_symbol
 _atom_site_label
 _atom_site_symmetry_multiplicity
 _atom_site_fract_x
 _atom_site_fract_y
 _atom_site_fract_z
 _atom_site_occupancy
  Al  Al0  1  0.11386033  0.09103995  0.32804818  1
  Al  Al1  1  0.22294215  0.20519642  0.07843598  1
  Al  Al2  1  0.77316684  0.10101080  0.83452372  1
  Al  Al3  1  0.89150276  0.20208551  0.58217241  1
  Al  Al4  1  0.44374630  0.09479299  0.33038681  1
  Al  Al5  1  0.55331969  0.20619242  0.08038817  1
  Al  Al6  1  0.11302574  0.09343819  0.82989194  1
  Al  Al7  1  0.22212185  0.20560616  0.57974983  1
  Al  Al8  1  0.77887706  0.09100100  0.32389637  1
  Al  Al9  1  0.89007929  0.20623818  0.07653435  1
  Al  Al10  1  0.44455191  0.09439000  0.82781769  1
  Al  Al11  1  0.55297559  0.20948418  0.57743888  1
  Al  Al12  1  0.11385928  0.42843106  0.32804824  1
  Al  Al13  1  0.22269172  0.53802245  0.07975588  1
  Al  Al14  1  0.77854155  0.42739497  0.82662249  1
  Al  Al15  1  0.89150269  0.53974730  0.58217252  1
  Al  Al16  1  0.44084580  0.42959411  0.32738293  1
  Al  Al17  1  0.55525354  0.53904092  0.07453467  1
  Al  Al18  1  0.11302590  0.42686710  0.82989148  1
  Al  Al19  1  0.22643267  0.53551205  0.57733247  1
  Al  Al20  1  0.89007921  0.53701763  0.07653403  1
  Al  Al21  1  0.44317444  0.42630094  0.82966711  1
  Al  Al22  1  0.54754274  0.54289701  0.58472268  1
  Al  Al23  1  0.11146401  0.76093329  0.32674038  1
  Al  Al24  1  0.22269176  0.87262076  0.07975549  1
  Al  Al25  1  0.77316761  0.75915381  0.83452371  1
  Al  Al26  1  0.44084607  0.76289229  0.32738281  1
  Al  Al27  1  0.55331981  0.87382326  0.08038771  1
  Al  Al28  1  0.11885386  0.75723832  0.83182951  1
  Al  Al29  1  0.22643298  0.87138931  0.57733292  1
  Al  Al30  1  0.77887647  0.76345304  0.32389627  1
  Al  Al31  1  0.89008466  0.87162530  0.07653679  1
  Al  Al32  1  0.44317455  0.76385649  0.82966715  1
  Al  Al33  1  0.55297639  0.87087577  0.57743890  1
  Sc  Sc34  1  0.77645609  0.42843588  0.34489356  1
  Sc  Sc35  1  0.88844778  0.87244548  0.59380053  1
  N  N36  1  0.22098632  0.20617565  0.37990026  1
  N  N37  1  0.11148143  0.09499450  0.12845741  1
  N  N38  1  0.89084711  0.20614473  0.87768866  1
  N  N39  1  0.76502126  0.11596430  0.63753069  1
  N  N40  1  0.55629504  0.20619109  0.37667509  1
  N  N41  1  0.44332222  0.09500335  0.13161446  1
  N  N42  1  0.22341230  0.20496263  0.87888897  1
  N  N43  1  0.11316459  0.09273889  0.63086909  1
  N  N44  1  0.89976294  0.18304230  0.38358160  1
  N  N45  1  0.77765373  0.09508508  0.12316778  1
  N  N46  1  0.55226920  0.20616720  0.88246668  1
  N  N47  1  0.44550388  0.09391267  0.62704371  1
  N  N48  1  0.22228546  0.53869014  0.37737086  1
  N  N49  1  0.11148110  0.42685278  0.12845769  1
  N  N50  1  0.89084715  0.53634632  0.87768823  1
  N  N51  1  0.77806191  0.42763368  0.62006079  1
  N  N52  1  0.53246167  0.55043886  0.38642900  1
  N  N53  1  0.44487052  0.42847361  0.12804216  1
  N  N54  1  0.22301973  0.53719722  0.88197204  1
  N  N55  1  0.11316450  0.42742405  0.63086847  1
  N  N56  1  0.89976127  0.55053226  0.38358092  1
  N  N57  1  0.77675509  0.42828680  0.12081906  1
  N  N58  1  0.55500444  0.53916687  0.87389055  1
  N  N59  1  0.44298313  0.42608534  0.63144890  1
  N  N60  1  0.22228579  0.87236128  0.37737120  1
  N  N61  1  0.11187453  0.76072708  0.12644399  1
  N  N62  1  0.89000425  0.87166687  0.87096146  1
  N  N63  1  0.76502291  0.75234336  0.63752987  1
  N  N64  1  0.55629468  0.87085306  0.37667541  1
  N  N65  1  0.44487052  0.75998523  0.12804170  1
  N  N66  1  0.22301947  0.87312039  0.88197167  1
  N  N67  1  0.13376418  0.74978144  0.63352586  1
  N  N68  1  0.88859178  0.87237268  0.36902680  1
  N  N69  1  0.77765371  0.76058989  0.12316760  1
  N  N70  1  0.55227004  0.87490161  0.88246607  1
  N  N71  1  0.44298323  0.76426127  0.63144942  1
