# generated using pymatgen
data_ScAl17N18
_symmetry_space_group_name_H-M   'P 1'
_cell_length_a   9.49581356
_cell_length_b   9.49412949
_cell_length_c   9.99919356
_cell_angle_alpha   89.99999942
_cell_angle_beta   89.98539564
_cell_angle_gamma   60.00570522
_symmetry_Int_Tables_number   1
_chemical_formula_structural   ScAl17N18
_chemical_formula_sum   'Sc2 Al34 N36'
_cell_volume   780.74261085
_cell_formula_units_Z   2
loop_
 _symmetry_equiv_pos_site_id
 _symmetry_equiv_pos_as_xyz
  1  'x, y, z'
loop_
 _atom_site_type_symbol
 _atom_site_label
 _atom_site_symmetry_multiplicity
 _atom_site_fract_x
 _atom_site_fract_y
 _atom_site_fract_z
 _atom_site_occupancy
  Al  Al0  1  0.11367791  0.09067845  0.29917402  1
  Al  Al1  1  0.22237381  0.20547977  0.04945738  1
  Al  Al2  1  0.77441175  0.09914215  0.80277510  1
  Al  Al3  1  0.89069440  0.20356926  0.55244948  1
  Al  Al4  1  0.44418560  0.09457382  0.29957853  1
  Al  Al5  1  0.55394513  0.20639690  0.04947678  1
  Al  Al6  1  0.11277875  0.09364891  0.79950395  1
  Al  Al7  1  0.22241589  0.20545875  0.54947469  1
  Al  Al8  1  0.77821949  0.09199892  0.29425959  1
  Al  Al9  1  0.89003360  0.20548232  0.04528150  1
  Al  Al10  1  0.44428834  0.09452248  0.79922771  1
  Al  Al11  1  0.55289757  0.20918426  0.54897251  1
  Al  Al12  1  0.11367802  0.42897714  0.29917402  1
  Al  Al13  1  0.22289852  0.53783054  0.04918561  1
  Al  Al14  1  0.77808240  0.42762548  0.79734576  1
  Al  Al15  1  0.89069441  0.53906957  0.55244952  1
  Al  Al16  1  0.44075949  0.42920617  0.29875213  1
  Al  Al17  1  0.55456265  0.53938527  0.04507719  1
  Al  Al18  1  0.11277875  0.42690583  0.79950397  1
  Al  Al19  1  0.22617491  0.53597592  0.54868598  1
  Al  Al20  1  0.89003363  0.53781736  0.04528149  1
  Al  Al21  1  0.44352706  0.42693781  0.79911659  1
  Al  Al22  1  0.54943801  0.54194753  0.55314504  1
  Al  Al23  1  0.11235226  0.76049063  0.29543571  1
  Al  Al24  1  0.22289848  0.87260430  0.04918565  1
  Al  Al25  1  0.77441167  0.75977949  0.80277511  1
  Al  Al26  1  0.44075941  0.76336765  0.29875212  1
  Al  Al27  1  0.55394511  0.87299116  0.04947681  1
  Al  Al28  1  0.11682096  0.75825629  0.80217122  1
  Al  Al29  1  0.22617485  0.87118259  0.54868595  1
  Al  Al30  1  0.77821958  0.76311504  0.29425958  1
  Al  Al31  1  0.88945105  0.87194112  0.04779469  1
  Al  Al32  1  0.44352703  0.76286845  0.79911660  1
  Al  Al33  1  0.55289752  0.87125127  0.54897248  1
  Sc  Sc34  1  0.77739599  0.42796890  0.30770724  1
  Sc  Sc35  1  0.88897327  0.87217984  0.55531853  1
  N  N36  1  0.22134471  0.20599419  0.35677704  1
  N  N37  1  0.11096589  0.09476529  0.10673261  1
  N  N38  1  0.89076946  0.20535889  0.85455882  1
  N  N39  1  0.76622607  0.11421556  0.61428890  1
  N  N40  1  0.55610105  0.20585797  0.35550281  1
  N  N41  1  0.44400473  0.09466443  0.10787626  1
  N  N42  1  0.22273880  0.20529714  0.85720459  1
  N  N43  1  0.11295972  0.09315968  0.60785712  1
  N  N44  1  0.89902950  0.18396858  0.36247425  1
  N  N45  1  0.77726519  0.09596337  0.10201628  1
  N  N46  1  0.55315027  0.20631586  0.85881221  1
  N  N47  1  0.44506276  0.09413539  0.60593804  1
  N  N48  1  0.22202827  0.53936413  0.35616579  1
  N  N49  1  0.11096593  0.42760256  0.10673258  1
  N  N50  1  0.89076946  0.53720459  0.85455882  1
  N  N51  1  0.77758448  0.42787456  0.60044067  1
  N  N52  1  0.53427359  0.54952962  0.36330735  1
  N  N53  1  0.44471225  0.42823446  0.10651838  1
  N  N54  1  0.22305799  0.53717394  0.85862721  1
  N  N55  1  0.11295973  0.42721442  0.60785714  1
  N  N56  1  0.89902970  0.55033502  0.36247435  1
  N  N57  1  0.77726702  0.42803336  0.09453897  1
  N  N58  1  0.55446006  0.53943642  0.85272789  1
  N  N59  1  0.44353048  0.42662520  0.60834855  1
  N  N60  1  0.22202820  0.87194077  0.35616576  1
  N  N61  1  0.11258885  0.76037244  0.10339339  1
  N  N62  1  0.88944958  0.87194168  0.85160584  1
  N  N63  1  0.76622591  0.75289202  0.61428899  1
  N  N64  1  0.55610108  0.87137377  0.35550274  1
  N  N65  1  0.44471223  0.76038686  0.10651839  1
  N  N66  1  0.22305797  0.87310117  0.85862726  1
  N  N67  1  0.13210610  0.75061388  0.61231321  1
  N  N68  1  0.88904584  0.87214363  0.34202716  1
  N  N69  1  0.77726519  0.76010512  0.10201626  1
  N  N70  1  0.55315021  0.87386679  0.85881227  1
  N  N71  1  0.44353043  0.76317786  0.60834852  1
