# generated using pymatgen
data_ScAl17N18
_symmetry_space_group_name_H-M   'P 1'
_cell_length_a   10.01731902
_cell_length_b   10.01204362
_cell_length_c   8.44820448
_cell_angle_alpha   90.00000022
_cell_angle_beta   89.99734958
_cell_angle_gamma   60.01656810
_symmetry_Int_Tables_number   1
_chemical_formula_structural   ScAl17N18
_chemical_formula_sum   'Sc2 Al34 N36'
_cell_volume   733.90824631
_cell_formula_units_Z   2
loop_
 _symmetry_equiv_pos_site_id
 _symmetry_equiv_pos_as_xyz
  1  'x, y, z'
loop_
 _atom_site_type_symbol
 _atom_site_label
 _atom_site_symmetry_multiplicity
 _atom_site_fract_x
 _atom_site_fract_y
 _atom_site_fract_z
 _atom_site_occupancy
  Al  Al0  1  0.11418301  0.09136533  0.35064301  1
  Al  Al1  1  0.22283587  0.20524855  0.10048045  1
  Al  Al2  1  0.77460163  0.09812438  0.85604799  1
  Al  Al3  1  0.89048067  0.20492452  0.60710100  1
  Al  Al4  1  0.44380465  0.09476449  0.35130885  1
  Al  Al5  1  0.55353351  0.20609968  0.10107184  1
  Al  Al6  1  0.11297582  0.09363757  0.85256339  1
  Al  Al7  1  0.22231079  0.20551117  0.60232480  1
  Al  Al8  1  0.77650982  0.09443150  0.34637785  1
  Al  Al9  1  0.89166517  0.20254284  0.09864998  1
  Al  Al10  1  0.44423060  0.09455153  0.85115251  1
  Al  Al11  1  0.55249338  0.20894839  0.60109858  1
  Al  Al12  1  0.11418330  0.42778623  0.35064292  1
  Al  Al13  1  0.22280334  0.53773379  0.10089286  1
  Al  Al14  1  0.77776201  0.42778602  0.85391080  1
  Al  Al15  1  0.89048072  0.53792717  0.60710093  1
  Al  Al16  1  0.44112703  0.42853298  0.34955710  1
  Al  Al17  1  0.55182862  0.54075167  0.09694990  1
  Al  Al18  1  0.11297585  0.42672119  0.85256346  1
  Al  Al19  1  0.22578516  0.53575091  0.60192000  1
  Al  Al20  1  0.89166532  0.53912462  0.09865007  1
  Al  Al21  1  0.44353255  0.42683539  0.85241182  1
  Al  Al22  1  0.55065059  0.54134064  0.60634186  1
  Al  Al23  1  0.11526279  0.75903600  0.34851594  1
  Al  Al24  1  0.22280332  0.87279596  0.10089303  1
  Al  Al25  1  0.77460139  0.76060801  0.85604798  1
  Al  Al26  1  0.44112695  0.76367352  0.34955696  1
  Al  Al27  1  0.55353343  0.87369896  0.10107192  1
  Al  Al28  1  0.11564193  0.75884642  0.85570480  1
  Al  Al29  1  0.22578509  0.87179713  0.60191977  1
  Al  Al30  1  0.77650978  0.76239293  0.34637779  1
  Al  Al31  1  0.88955356  0.87188954  0.10179799  1
  Al  Al32  1  0.44353253  0.76296571  0.85241193  1
  Al  Al33  1  0.55249308  0.87189035  0.60109845  1
  Sc  Sc34  1  0.77692276  0.42820611  0.35397637  1
  Sc  Sc35  1  0.88916951  0.87208100  0.60455239  1
  N  N36  1  0.22141413  0.20595916  0.35810685  1
  N  N37  1  0.11291287  0.09441632  0.10502804  1
  N  N38  1  0.89090042  0.20446328  0.85778943  1
  N  N39  1  0.76777443  0.11189922  0.61030837  1
  N  N40  1  0.55486453  0.20649406  0.35474615  1
  N  N41  1  0.44322240  0.09505602  0.10881791  1
  N  N42  1  0.22346448  0.20493390  0.85593035  1
  N  N43  1  0.11234531  0.09333645  0.60885884  1
  N  N44  1  0.89842725  0.18796273  0.35525604  1
  N  N45  1  0.77614746  0.09570878  0.10370146  1
  N  N46  1  0.55315092  0.20575343  0.85953728  1
  N  N47  1  0.44509038  0.09412194  0.60535170  1
  N  N48  1  0.22287792  0.53749616  0.35478021  1
  N  N49  1  0.11291309  0.42600607  0.10502780  1
  N  N50  1  0.89090040  0.53796807  0.85778956  1
  N  N51  1  0.77791894  0.42770784  0.61397963  1
  N  N52  1  0.53700297  0.54816406  0.35903003  1
  N  N53  1  0.44425817  0.42769654  0.10517350  1
  N  N54  1  0.22262746  0.53807167  0.85913215  1
  N  N55  1  0.11234533  0.42765370  0.60885913  1
  N  N56  1  0.89842766  0.54694190  0.35525599  1
  N  N57  1  0.77673463  0.42830007  0.09634671  1
  N  N58  1  0.55361997  0.53985573  0.85516795  1
  N  N59  1  0.44356583  0.42675533  0.60926258  1
  N  N60  1  0.22287789  0.87295842  0.35478006  1
  N  N61  1  0.11304202  0.76014663  0.10654179  1
  N  N62  1  0.89001651  0.87165765  0.86387813  1
  N  N63  1  0.76777397  0.75366104  0.61030842  1
  N  N64  1  0.55486446  0.87197269  0.35474593  1
  N  N65  1  0.44425820  0.76137947  0.10517369  1
  N  N66  1  0.22262751  0.87263335  0.85913236  1
  N  N67  1  0.12963664  0.75184948  0.60653273  1
  N  N68  1  0.88873900  0.87229649  0.34592645  1
  N  N69  1  0.77614742  0.76147868  0.10370146  1
  N  N70  1  0.55315066  0.87442710  0.85953757  1
  N  N71  1  0.44356580  0.76301302  0.60926243  1
