# generated using pymatgen
data_ScAl17N18
_symmetry_space_group_name_H-M   'P 1'
_cell_length_a   9.79937446
_cell_length_b   9.79524103
_cell_length_c   9.11223523
_cell_angle_alpha   89.99999953
_cell_angle_beta   89.99151723
_cell_angle_gamma   60.01513717
_symmetry_Int_Tables_number   1
_chemical_formula_structural   ScAl17N18
_chemical_formula_sum   'Sc2 Al34 N36'
_cell_volume   757.59177713
_cell_formula_units_Z   2
loop_
 _symmetry_equiv_pos_site_id
 _symmetry_equiv_pos_as_xyz
  1  'x, y, z'
loop_
 _atom_site_type_symbol
 _atom_site_label
 _atom_site_symmetry_multiplicity
 _atom_site_fract_x
 _atom_site_fract_y
 _atom_site_fract_z
 _atom_site_occupancy
  Al  Al0  1  0.11344773  0.09059437  0.37610845  1
  Al  Al1  1  0.22184826  0.20574293  0.12609701  1
  Al  Al2  1  0.77576526  0.09472547  0.87651382  1
  Al  Al3  1  0.88829931  0.20790819  0.62996827  1
  Al  Al4  1  0.44491520  0.09420873  0.37238119  1
  Al  Al5  1  0.55326934  0.20696256  0.12262140  1
  Al  Al6  1  0.11400386  0.09385137  0.87180807  1
  Al  Al7  1  0.22337723  0.20497842  0.62129621  1
  Al  Al8  1  0.77547212  0.09736762  0.36886878  1
  Al  Al9  1  0.89345933  0.19983399  0.11613022  1
  Al  Al10  1  0.44326220  0.09503514  0.87508992  1
  Al  Al11  1  0.55280641  0.20844151  0.62509703  1
  Al  Al12  1  0.11344743  0.42929024  0.37610843  1
  Al  Al13  1  0.22384873  0.53536258  0.12259964  1
  Al  Al14  1  0.77614076  0.42859579  0.87285737  1
  Al  Al15  1  0.88829939  0.53712697  0.62996829  1
  Al  Al16  1  0.44027303  0.42840347  0.37583168  1
  Al  Al17  1  0.54838773  0.54247345  0.12001896  1
  Al  Al18  1  0.11400381  0.42547713  0.87180819  1
  Al  Al19  1  0.22531687  0.53764354  0.62608707  1
  Al  Al20  1  0.89345907  0.54004092  0.11613012  1
  Al  Al21  1  0.44394517  0.42737111  0.87266566  1
  Al  Al22  1  0.55407725  0.53962865  0.62584974  1
  Al  Al23  1  0.11829524  0.75751831  0.36550590  1
  Al  Al24  1  0.22384875  0.87412282  0.12259968  1
  Al  Al25  1  0.77576529  0.76284169  0.87651400  1
  Al  Al26  1  0.44027308  0.76465612  0.37583193  1
  Al  Al27  1  0.55326926  0.87310249  0.12262158  1
  Al  Al28  1  0.11246356  0.76043438  0.87964283  1
  Al  Al29  1  0.22531689  0.87037361  0.62608701  1
  Al  Al30  1  0.77547220  0.76049251  0.36886853  1
  Al  Al31  1  0.88787992  0.87272722  0.12193998  1
  Al  Al32  1  0.44394515  0.76201621  0.87266545  1
  Al  Al33  1  0.55280680  0.87208634  0.62509695  1
  Sc  Sc34  1  0.77836276  0.42748422  0.35851476  1
  Sc  Sc35  1  0.89045792  0.87143873  0.60821850  1
  N  N36  1  0.22098003  0.20617749  0.33903017  1
  N  N37  1  0.11484283  0.09409909  0.08132113  1
  N  N38  1  0.88934254  0.20451511  0.84291519  1
  N  N39  1  0.76746441  0.11549476  0.58241333  1
  N  N40  1  0.55342387  0.20747808  0.33344688  1
  N  N41  1  0.44273956  0.09529604  0.08653925  1
  N  N42  1  0.22386159  0.20473677  0.83160339  1
  N  N43  1  0.11034539  0.09360407  0.58897386  1
  N  N44  1  0.90122613  0.18533746  0.32713694  1
  N  N45  1  0.77528535  0.09457654  0.08716935  1
  N  N46  1  0.55472099  0.20489873  0.83667690  1
  N  N47  1  0.44598248  0.09367456  0.58394480  1
  N  N48  1  0.22378596  0.53533891  0.33274779  1
  N  N49  1  0.11484253  0.42438956  0.08132134  1
  N  N50  1  0.88934252  0.53947754  0.84291528  1
  N  N51  1  0.77828320  0.42752427  0.59828482  1
  N  N52  1  0.53398954  0.54967308  0.33260965  1
  N  N53  1  0.44376638  0.42696671  0.08200928  1
  N  N54  1  0.22168757  0.54021857  0.83723204  1
  N  N55  1  0.11034544  0.42938179  0.58897374  1
  N  N56  1  0.90122560  0.54677156  0.32713715  1
  N  N57  1  0.77620022  0.42856565  0.09094412  1
  N  N58  1  0.55416157  0.53958680  0.83796053  1
  N  N59  1  0.44403460  0.42741515  0.58815438  1
  N  N60  1  0.22378594  0.87420995  0.33274805  1
  N  N61  1  0.11232878  0.76050136  0.09214554  1
  N  N62  1  0.89020243  0.87156633  0.84680030  1
  N  N63  1  0.76746492  0.75037238  0.58241343  1
  N  N64  1  0.55342391  0.87243351  0.33344714  1
  N  N65  1  0.44376622  0.76259874  0.08200909  1
  N  N66  1  0.22168752  0.87142884  0.83723181  1
  N  N67  1  0.13282229  0.75025435  0.57803983  1
  N  N68  1  0.88827215  0.87253143  0.34146770  1
  N  N69  1  0.77528534  0.76346955  0.08716961  1
  N  N70  1  0.55472111  0.87371546  0.83667675  1
  N  N71  1  0.44403466  0.76188201  0.58815458  1
