# generated using pymatgen
data_ScAl17N18
_symmetry_space_group_name_H-M   'P 1'
_cell_length_a   9.97466795
_cell_length_b   9.96987519
_cell_length_c   8.56757878
_cell_angle_alpha   89.99999974
_cell_angle_beta   89.99710243
_cell_angle_gamma   60.01582231
_symmetry_Int_Tables_number   1
_chemical_formula_structural   ScAl17N18
_chemical_formula_sum   'Sc2 Al34 N36'
_cell_volume   737.98260712
_cell_formula_units_Z   2
loop_
 _symmetry_equiv_pos_site_id
 _symmetry_equiv_pos_as_xyz
  1  'x, y, z'
loop_
 _atom_site_type_symbol
 _atom_site_label
 _atom_site_symmetry_multiplicity
 _atom_site_fract_x
 _atom_site_fract_y
 _atom_site_fract_z
 _atom_site_occupancy
  Al  Al0  1  0.11391579  0.09088909  0.36280778  1
  Al  Al1  1  0.22209828  0.20561750  0.11293218  1
  Al  Al2  1  0.77510830  0.09684112  0.86387242  1
  Al  Al3  1  0.88971146  0.20609505  0.61710467  1
  Al  Al4  1  0.44467817  0.09432759  0.36014351  1
  Al  Al5  1  0.55349568  0.20669024  0.11003657  1
  Al  Al6  1  0.11349807  0.09396560  0.86102550  1
  Al  Al7  1  0.22316588  0.20508372  0.61056880  1
  Al  Al8  1  0.77607648  0.09548075  0.35482366  1
  Al  Al9  1  0.89239566  0.20159218  0.10506697  1
  Al  Al10  1  0.44346005  0.09493667  0.86296445  1
  Al  Al11  1  0.55253539  0.20842230  0.61266874  1
  Al  Al12  1  0.11391575  0.42852855  0.36280781  1
  Al  Al13  1  0.22341752  0.53636721  0.11025083  1
  Al  Al14  1  0.77666510  0.42833413  0.85935385  1
  Al  Al15  1  0.88971142  0.53752677  0.61710461  1
  Al  Al16  1  0.44068591  0.42815491  0.36198495  1
  Al  Al17  1  0.55051218  0.54141053  0.10667434  1
  Al  Al18  1  0.11349805  0.42586975  0.86102547  1
  Al  Al19  1  0.22531258  0.53686197  0.61396991  1
  Al  Al20  1  0.89239565  0.53934546  0.10506699  1
  Al  Al21  1  0.44389976  0.42732516  0.86143992  1
  Al  Al22  1  0.55197525  0.54067899  0.61373520  1
  Al  Al23  1  0.11639749  0.75846797  0.35462147  1
  Al  Al24  1  0.22341756  0.87354854  0.11025084  1
  Al  Al25  1  0.77510830  0.76138394  0.86387234  1
  Al  Al26  1  0.44068594  0.76449248  0.36198491  1
  Al  Al27  1  0.55349569  0.87314733  0.11003653  1
  Al  Al28  1  0.11424703  0.75954320  0.86681302  1
  Al  Al29  1  0.22531258  0.87115880  0.61396990  1
  Al  Al30  1  0.77607648  0.76177619  0.35482371  1
  Al  Al31  1  0.88851106  0.87241110  0.10714601  1
  Al  Al32  1  0.44389977  0.76210844  0.86143993  1
  Al  Al33  1  0.55253538  0.87237558  0.61266878  1
  Sc  Sc34  1  0.77784177  0.42774576  0.35447098  1
  Sc  Sc35  1  0.89002889  0.87165225  0.60486196  1
  N  N36  1  0.22130614  0.20601356  0.35022649  1
  N  N37  1  0.11399418  0.09429822  0.09411921  1
  N  N38  1  0.89018180  0.20430298  0.85280426  1
  N  N39  1  0.76820507  0.11267747  0.59846978  1
  N  N40  1  0.55404419  0.20696109  0.34549043  1
  N  N41  1  0.44286315  0.09523515  0.09886555  1
  N  N42  1  0.22366549  0.20483387  0.84444154  1
  N  N43  1  0.11127878  0.09349577  0.60043814  1
  N  N44  1  0.89942276  0.18767963  0.34261783  1
  N  N45  1  0.77553343  0.09536185  0.09800356  1
  N  N46  1  0.55394207  0.20533557  0.84953786  1
  N  N47  1  0.44556480  0.09388431  0.59598969  1
  N  N48  1  0.22329709  0.53644190  0.34483079  1
  N  N49  1  0.11399417  0.42504108  0.09411919  1
  N  N50  1  0.89018178  0.53884840  0.85280425  1
  N  N51  1  0.77808227  0.42762557  0.61073125  1
  N  N52  1  0.53647246  0.54843032  0.34754055  1
  N  N53  1  0.44397385  0.42730482  0.09473592  1
  N  N54  1  0.22210465  0.53922199  0.84951520  1
  N  N55  1  0.11127877  0.42855896  0.60043818  1
  N  N56  1  0.89942272  0.54623080  0.34261790  1
  N  N57  1  0.77638823  0.42847260  0.09399477  1
  N  N58  1  0.55369050  0.53982135  0.84891917  1
  N  N59  1  0.44377973  0.42711707  0.60016297  1
  N  N60  1  0.22329713  0.87359423  0.34483076  1
  N  N61  1  0.11292305  0.76020521  0.10140317  1
  N  N62  1  0.89005290  0.87164016  0.86009348  1
  N  N63  1  0.76820506  0.75245098  0.59846988  1
  N  N64  1  0.55404422  0.87232787  0.34549038  1
  N  N65  1  0.44397387  0.76205474  0.09473596  1
  N  N66  1  0.22210467  0.87200660  0.84951520  1
  N  N67  1  0.13019774  0.75156790  0.59367455  1
  N  N68  1  0.88854961  0.87239181  0.34407342  1
  N  N69  1  0.77553346  0.76243817  0.09800353  1
  N  N70  1  0.55394203  0.87405557  0.84953793  1
  N  N71  1  0.44377974  0.76243662  0.60016295  1
