# generated using pymatgen
data_ScAl17N18
_symmetry_space_group_name_H-M   'P 1'
_cell_length_a   9.59017545
_cell_length_b   9.58754578
_cell_length_c   9.73840272
_cell_angle_alpha   89.99998981
_cell_angle_beta   89.98502879
_cell_angle_gamma   60.01172890
_symmetry_Int_Tables_number   1
_chemical_formula_structural   ScAl17N18
_chemical_formula_sum   'Sc2 Al34 N36'
_cell_volume   775.53903483
_cell_formula_units_Z   2
loop_
 _symmetry_equiv_pos_site_id
 _symmetry_equiv_pos_as_xyz
  1  'x, y, z'
loop_
 _atom_site_type_symbol
 _atom_site_label
 _atom_site_symmetry_multiplicity
 _atom_site_fract_x
 _atom_site_fract_y
 _atom_site_fract_z
 _atom_site_occupancy
  Al  Al0  1  0.11386787  0.09087058  0.32676037  1
  Al  Al1  1  0.22276723  0.20528376  0.07719267  1
  Al  Al2  1  0.77344238  0.10078883  0.83225187  1
  Al  Al3  1  0.89140847  0.20234477  0.58041728  1
  Al  Al4  1  0.44393383  0.09469942  0.32845645  1
  Al  Al5  1  0.55361422  0.20621200  0.07854020  1
  Al  Al6  1  0.11287942  0.09356771  0.82826164  1
  Al  Al7  1  0.22226298  0.20553541  0.57805639  1
  Al  Al8  1  0.77881714  0.09100233  0.32270694  1
  Al  Al9  1  0.88992225  0.20620954  0.07488629  1
  Al  Al10  1  0.44447644  0.09442789  0.82677512  1
  Al  Al11  1  0.55288334  0.20946724  0.57635535  1
  Al  Al12  1  0.11386677  0.42859295  0.32676032  1
  Al  Al13  1  0.22271116  0.53802263  0.07801568  1
  Al  Al14  1  0.77838486  0.42747346  0.82465039  1
  Al  Al15  1  0.89140847  0.53958216  0.58041719  1
  Al  Al16  1  0.44070423  0.42948718  0.32619632  1
  Al  Al17  1  0.55528165  0.53902681  0.07342157  1
  Al  Al18  1  0.11287957  0.42688396  0.82826122  1
  Al  Al19  1  0.22638882  0.53560909  0.57614366  1
  Al  Al20  1  0.88992210  0.53720315  0.07488603  1
  Al  Al21  1  0.44333750  0.42652938  0.82795086  1
  Al  Al22  1  0.54777965  0.54277853  0.58238990  1
  Al  Al23  1  0.11145564  0.76093753  0.32499536  1
  Al  Al24  1  0.22271126  0.87260091  0.07801536  1
  Al  Al25  1  0.77344324  0.75910050  0.83225173  1
  Al  Al26  1  0.44070462  0.76314105  0.32619622  1
  Al  Al27  1  0.55361437  0.87350907  0.07853972  1
  Al  Al28  1  0.11851871  0.75740596  0.83020917  1
  Al  Al29  1  0.22638923  0.87133575  0.57614405  1
  Al  Al30  1  0.77881638  0.76351181  0.32270681  1
  Al  Al31  1  0.88986787  0.87173359  0.07474797  1
  Al  Al32  1  0.44333763  0.76346525  0.82795089  1
  Al  Al33  1  0.55288411  0.87098502  0.57635531  1
  Sc  Sc34  1  0.77665617  0.42833574  0.34185903  1
  Sc  Sc35  1  0.88856350  0.87238764  0.59042276  1
  N  N36  1  0.22114323  0.20609715  0.38123290  1
  N  N37  1  0.11134039  0.09491069  0.13025918  1
  N  N38  1  0.89070577  0.20614185  0.87925080  1
  N  N39  1  0.76520123  0.11589750  0.63891341  1
  N  N40  1  0.55622372  0.20610395  0.37871554  1
  N  N41  1  0.44357579  0.09487662  0.13269661  1
  N  N42  1  0.22320034  0.20506855  0.88075802  1
  N  N43  1  0.11309177  0.09287767  0.63232049  1
  N  N44  1  0.89975851  0.18297173  0.38559350  1
  N  N45  1  0.77764267  0.09513628  0.12535704  1
  N  N46  1  0.55256910  0.20623816  0.88367755  1
  N  N47  1  0.44540421  0.09396254  0.62916799  1
  N  N48  1  0.22217381  0.53889562  0.37937061  1
  N  N49  1  0.11134005  0.42707755  0.13025943  1
  N  N50  1  0.89070579  0.53649058  0.87925040  1
  N  N51  1  0.77787950  0.42772493  0.62178809  1
  N  N52  1  0.53251445  0.55041254  0.38777577  1
  N  N53  1  0.44480619  0.42838327  0.12992089  1
  N  N54  1  0.22304526  0.53717970  0.88327651  1
  N  N55  1  0.11309168  0.42735785  0.63231991  1
  N  N56  1  0.89975662  0.55060707  0.38559262  1
  N  N57  1  0.77691557  0.42820649  0.12218824  1
  N  N58  1  0.55504321  0.53914753  0.87606399  1
  N  N59  1  0.44311350  0.42627558  0.63285860  1
  N  N60  1  0.22217425  0.87226725  0.37937094  1
  N  N61  1  0.11186857  0.76073003  0.12794038  1
  N  N62  1  0.88980784  0.87176512  0.87282362  1
  N  N63  1  0.76520308  0.75223028  0.63891244  1
  N  N64  1  0.55622330  0.87101175  0.37871588  1
  N  N65  1  0.44480622  0.76013999  0.12992045  1
  N  N66  1  0.22304508  0.87311225  0.88327617  1
  N  N67  1  0.13364422  0.74984134  0.63555798  1
  N  N68  1  0.88871777  0.87230960  0.37027569  1
  N  N69  1  0.77764262  0.76054977  0.12535688  1
  N  N70  1  0.55256998  0.87453079  0.88367686  1
  N  N71  1  0.44311373  0.76394073  0.63285905  1
