# generated using pymatgen
data_ScAl17N18
_symmetry_space_group_name_H-M   'P 1'
_cell_length_a   9.46814597
_cell_length_b   9.46572215
_cell_length_c   10.07125398
_cell_angle_alpha   89.99999999
_cell_angle_beta   89.98722607
_cell_angle_gamma   60.00846785
_symmetry_Int_Tables_number   1
_chemical_formula_structural   ScAl17N18
_chemical_formula_sum   'Sc2 Al34 N36'
_cell_volume   781.75364371
_cell_formula_units_Z   2
loop_
 _symmetry_equiv_pos_site_id
 _symmetry_equiv_pos_as_xyz
  1  'x, y, z'
loop_
 _atom_site_type_symbol
 _atom_site_label
 _atom_site_symmetry_multiplicity
 _atom_site_fract_x
 _atom_site_fract_y
 _atom_site_fract_z
 _atom_site_occupancy
  Al  Al0  1  0.11373733  0.09084058  0.41300666  1
  Al  Al1  1  0.22237834  0.20547750  0.16300677  1
  Al  Al2  1  0.77647534  0.09491221  0.91720003  1
  Al  Al3  1  0.88854534  0.20772859  0.66781536  1
  Al  Al4  1  0.44425810  0.09453761  0.41279251  1
  Al  Al5  1  0.55394523  0.20631194  0.16292706  1
  Al  Al6  1  0.11259959  0.09365062  0.91286302  1
  Al  Al7  1  0.22241121  0.20546107  0.66261487  1
  Al  Al8  1  0.77630102  0.09590410  0.40965867  1
  Al  Al9  1  0.89194394  0.20142357  0.15981392  1
  Al  Al10  1  0.44433318  0.09450007  0.91268377  1
  Al  Al11  1  0.55298060  0.20940999  0.66269952  1
  Al  Al12  1  0.11373731  0.42875545  0.41300667  1
  Al  Al13  1  0.22303733  0.53728903  0.16322994  1
  Al  Al14  1  0.77725930  0.42803700  0.91430777  1
  Al  Al15  1  0.88854534  0.53705940  0.66781537  1
  Al  Al16  1  0.44046771  0.42891512  0.41323820  1
  Al  Al17  1  0.55040634  0.54146349  0.16013778  1
  Al  Al18  1  0.11259959  0.42708311  0.91286302  1
  Al  Al19  1  0.22587316  0.53662764  0.66314011  1
  Al  Al20  1  0.89194394  0.53996581  0.15981392  1
  Al  Al21  1  0.44375371  0.42738477  0.91313703  1
  Al  Al22  1  0.55392045  0.53970645  0.66694759  1
  Al  Al23  1  0.11653414  0.75839960  0.40926788  1
  Al  Al24  1  0.22303733  0.87300697  0.16322993  1
  Al  Al25  1  0.77647534  0.76194576  0.91720003  1
  Al  Al26  1  0.44046769  0.76395050  0.41323820  1
  Al  Al27  1  0.55394523  0.87307615  0.16292706  1
  Al  Al28  1  0.11241377  0.76045978  0.91716306  1
  Al  Al29  1  0.22587314  0.87083257  0.66314011  1
  Al  Al30  1  0.77630101  0.76112820  0.40965866  1
  Al  Al31  1  0.88864215  0.87234559  0.16476630  1
  Al  Al32  1  0.44375371  0.76219485  0.91313703  1
  Al  Al33  1  0.55298060  0.87094274  0.66269952  1
  Sc  Sc34  1  0.77752903  0.42790216  0.40923608  1
  Sc  Sc35  1  0.88903915  0.87214707  0.65672190  1
  N  N36  1  0.22183994  0.20574671  0.35471852  1
  N  N37  1  0.11334387  0.09370552  0.10224645  1
  N  N38  1  0.88934739  0.20406221  0.85853160  1
  N  N39  1  0.76791757  0.11549174  0.59816248  1
  N  N40  1  0.55369351  0.20673257  0.35310581  1
  N  N41  1  0.44400630  0.09466351  0.10358640  1
  N  N42  1  0.22257944  0.20537694  0.85306266  1
  N  N43  1  0.11058004  0.09428488  0.60504820  1
  N  N44  1  0.90010835  0.18647561  0.34680133  1
  N  N45  1  0.77595856  0.09468168  0.10642427  1
  N  N46  1  0.55578058  0.20527207  0.85391963  1
  N  N47  1  0.44508912  0.09412211  0.60403677  1
  N  N48  1  0.22302309  0.53701979  0.35259275  1
  N  N49  1  0.11334387  0.42628394  0.10224644  1
  N  N50  1  0.88934739  0.53992371  0.85853161  1
  N  N51  1  0.77749422  0.42791955  0.61935678  1
  N  N52  1  0.53516833  0.54908249  0.34842451  1
  N  N53  1  0.44357476  0.42691288  0.10238146  1
  N  N54  1  0.22197920  0.53954999  0.85410378  1
  N  N55  1  0.11058003  0.42846845  0.60504821  1
  N  N56  1  0.90010835  0.54674936  0.34680132  1
  N  N57  1  0.77725847  0.42803742  0.10819453  1
  N  N58  1  0.55406552  0.53963390  0.85744072  1
  N  N59  1  0.44460083  0.42819486  0.60440511  1
  N  N60  1  0.22302308  0.87329046  0.35259275  1
  N  N61  1  0.11216324  0.76058505  0.10784123  1
  N  N62  1  0.88929791  0.87201770  0.86678254  1
  N  N63  1  0.76791756  0.74992401  0.59816247  1
  N  N64  1  0.55369350  0.87290725  0.35310581  1
  N  N65  1  0.44357475  0.76284568  0.10238146  1
  N  N66  1  0.22197920  0.87180414  0.85410379  1
  N  N67  1  0.13158571  0.75087382  0.59766503  1
  N  N68  1  0.88911078  0.87211127  0.35921882  1
  N  N69  1  0.77595856  0.76269309  0.10642428  1
  N  N70  1  0.55578058  0.87228068  0.85391964  1
  N  N71  1  0.44460081  0.76053765  0.60440512  1
