# generated using pymatgen
data_ScAl17N18
_symmetry_space_group_name_H-M   'P 1'
_cell_length_a   9.49488338
_cell_length_b   9.49318130
_cell_length_c   10.00160928
_cell_angle_alpha   90.00000704
_cell_angle_beta   89.98552646
_cell_angle_gamma   60.00592509
_symmetry_Int_Tables_number   1
_chemical_formula_structural   ScAl17N18
_chemical_formula_sum   'Sc2 Al34 N36'
_cell_volume   780.77847927
_cell_formula_units_Z   2
loop_
 _symmetry_equiv_pos_site_id
 _symmetry_equiv_pos_as_xyz
  1  'x, y, z'
loop_
 _atom_site_type_symbol
 _atom_site_label
 _atom_site_symmetry_multiplicity
 _atom_site_fract_x
 _atom_site_fract_y
 _atom_site_fract_z
 _atom_site_occupancy
  Al  Al0  1  0.11374344  0.09083248  0.39858611  1
  Al  Al1  1  0.22235870  0.20548734  0.14833904  1
  Al  Al2  1  0.77660617  0.09454180  0.90229463  1
  Al  Al3  1  0.88843149  0.20799842  0.65330353  1
  Al  Al4  1  0.44422890  0.09455221  0.39809777  1
  Al  Al5  1  0.55386659  0.20636219  0.14807029  1
  Al  Al6  1  0.11269708  0.09361290  0.89809730  1
  Al  Al7  1  0.22245725  0.20543806  0.64799395  1
  Al  Al8  1  0.77596131  0.09642528  0.39510096  1
  Al  Al9  1  0.89222078  0.20089230  0.14479272  1
  Al  Al10  1  0.44427463  0.09452934  0.89810801  1
  Al  Al11  1  0.55296898  0.20933436  0.64838293  1
  Al  Al12  1  0.11374349  0.42875741  0.39858606  1
  Al  Al13  1  0.22311497  0.53714777  0.14845706  1
  Al  Al14  1  0.77719529  0.42806897  0.89974459  1
  Al  Al15  1  0.88843144  0.53690339  0.65330355  1
  Al  Al16  1  0.44047073  0.42883159  0.39887168  1
  Al  Al17  1  0.54984468  0.54174432  0.14538655  1
  Al  Al18  1  0.11269708  0.42702336  0.89809729  1
  Al  Al19  1  0.22587928  0.53664579  0.64880424  1
  Al  Al20  1  0.89222078  0.54022026  0.14479261  1
  Al  Al21  1  0.44374307  0.42740713  0.89838681  1
  Al  Al22  1  0.55427660  0.53952833  0.65213991  1
  Al  Al23  1  0.11717873  0.75807727  0.39441967  1
  Al  Al24  1  0.22311497  0.87307063  0.14845709  1
  Al  Al25  1  0.77660611  0.76218535  0.90229462  1
  Al  Al26  1  0.44047069  0.76403098  0.39887170  1
  Al  Al27  1  0.55386661  0.87310454  0.14807027  1
  Al  Al28  1  0.11209298  0.76062018  0.90248911  1
  Al  Al29  1  0.22587923  0.87080829  0.64880424  1
  Al  Al30  1  0.77596133  0.76094675  0.39510094  1
  Al  Al31  1  0.88856401  0.87238465  0.15019253  1
  Al  Al32  1  0.44374305  0.76218311  0.89838680  1
  Al  Al33  1  0.55296900  0.87102997  0.64838293  1
  Sc  Sc34  1  0.77766408  0.42783479  0.39232623  1
  Sc  Sc35  1  0.88923646  0.87204853  0.63993311  1
  N  N36  1  0.22158755  0.20587286  0.34158908  1
  N  N37  1  0.11348954  0.09369551  0.08872574  1
  N  N38  1  0.88938438  0.20403779  0.84550202  1
  N  N39  1  0.76762557  0.11602457  0.58503949  1
  N  N40  1  0.55368526  0.20684939  0.33967805  1
  N  N41  1  0.44390996  0.09471168  0.09032453  1
  N  N42  1  0.22263776  0.20534782  0.83966052  1
  N  N43  1  0.11054309  0.09415719  0.59201869  1
  N  N44  1  0.90040452  0.18582369  0.33324094  1
  N  N45  1  0.77587145  0.09466463  0.09297288  1
  N  N46  1  0.55568161  0.20524777  0.84078997  1
  N  N47  1  0.44529694  0.09401818  0.59075678  1
  N  N48  1  0.22310767  0.53684140  0.33918663  1
  N  N49  1  0.11348951  0.42614834  0.08872567  1
  N  N50  1  0.88938435  0.53991114  0.84550200  1
  N  N51  1  0.77759208  0.42787064  0.60555224  1
  N  N52  1  0.53456031  0.54938651  0.33520655  1
  N  N53  1  0.44358507  0.42691002  0.08890918  1
  N  N54  1  0.22193248  0.53962244  0.84100353  1
  N  N55  1  0.11054303  0.42863311  0.59201861  1
  N  N56  1  0.90040465  0.54710521  0.33324073  1
  N  N57  1  0.77719597  0.42806867  0.09587577  1
  N  N58  1  0.55404430  0.53964448  0.84413678  1
  N  N59  1  0.44461391  0.42807589  0.59135463  1
  N  N60  1  0.22310758  0.87338426  0.33918675  1
  N  N61  1  0.11219308  0.76057015  0.09479283  1
  N  N62  1  0.88937352  0.87197986  0.85303765  1
  N  N63  1  0.76762565  0.74968322  0.58503952  1
  N  N64  1  0.55368527  0.87279859  0.33967804  1
  N  N65  1  0.44358508  0.76283825  0.08890915  1
  N  N66  1  0.22193244  0.87177840  0.84100354  1
  N  N67  1  0.13233725  0.75049802  0.58422133  1
  N  N68  1  0.88906068  0.87213633  0.34703613  1
  N  N69  1  0.77587141  0.76279730  0.09297288  1
  N  N70  1  0.55568157  0.87240391  0.84078997  1
  N  N71  1  0.44461394  0.76064350  0.59135466  1
