# generated using pymatgen
data_ScAl17N18
_symmetry_space_group_name_H-M   'P 1'
_cell_length_a   9.49487587
_cell_length_b   9.49317563
_cell_length_c   10.00162376
_cell_angle_alpha   89.99998928
_cell_angle_beta   89.98551983
_cell_angle_gamma   60.00593370
_symmetry_Int_Tables_number   1
_chemical_formula_structural   ScAl17N18
_chemical_formula_sum   'Sc2 Al34 N36'
_cell_volume   780.77859325
_cell_formula_units_Z   2
loop_
 _symmetry_equiv_pos_site_id
 _symmetry_equiv_pos_as_xyz
  1  'x, y, z'
loop_
 _atom_site_type_symbol
 _atom_site_label
 _atom_site_symmetry_multiplicity
 _atom_site_fract_x
 _atom_site_fract_y
 _atom_site_fract_z
 _atom_site_occupancy
  Al  Al0  1  0.11366889  0.09067986  0.31027897  1
  Al  Al1  1  0.22236312  0.20548507  0.06055378  1
  Al  Al2  1  0.77441693  0.09912193  0.81387007  1
  Al  Al3  1  0.89067643  0.20358903  0.56356197  1
  Al  Al4  1  0.44418032  0.09457647  0.31066773  1
  Al  Al5  1  0.55394069  0.20640145  0.06056497  1
  Al  Al6  1  0.11277140  0.09365188  0.81059182  1
  Al  Al7  1  0.22240864  0.20546241  0.56056400  1
  Al  Al8  1  0.77820665  0.09201585  0.30535950  1
  Al  Al9  1  0.89003179  0.20547239  0.05636782  1
  Al  Al10  1  0.44427919  0.09452709  0.81032286  1
  Al  Al11  1  0.55289417  0.20918253  0.56007587  1
  Al  Al12  1  0.11366895  0.42898443  0.31027884  1
  Al  Al13  1  0.22289460  0.53783138  0.06027516  1
  Al  Al14  1  0.77807367  0.42762988  0.80846974  1
  Al  Al15  1  0.89067658  0.53906780  0.56356197  1
  Al  Al16  1  0.44075835  0.42920635  0.30985756  1
  Al  Al17  1  0.55454458  0.53939438  0.05617318  1
  Al  Al18  1  0.11277138  0.42691012  0.81059183  1
  Al  Al19  1  0.22616680  0.53598396  0.55978992  1
  Al  Al20  1  0.89003184  0.53782912  0.05636769  1
  Al  Al21  1  0.44352253  0.42694387  0.81020484  1
  Al  Al22  1  0.54945877  0.54193716  0.56424264  1
  Al  Al23  1  0.11236153  0.76048595  0.30652236  1
  Al  Al24  1  0.22289467  0.87260740  0.06027527  1
  Al  Al25  1  0.77441710  0.75979439  0.81387008  1
  Al  Al26  1  0.44075825  0.76336865  0.30985755  1
  Al  Al27  1  0.55394074  0.87299111  0.06056488  1
  Al  Al28  1  0.11679314  0.75827006  0.81327594  1
  Al  Al29  1  0.22616670  0.87118259  0.55978985  1
  Al  Al30  1  0.77820668  0.76311091  0.30535949  1
  Al  Al31  1  0.88944244  0.87194546  0.05891779  1
  Al  Al32  1  0.44352263  0.76286678  0.81020473  1
  Al  Al33  1  0.55289434  0.87125669  0.56007592  1
  Sc  Sc34  1  0.77740115  0.42796601  0.31872906  1
  Sc  Sc35  1  0.88897375  0.87218003  0.56633622  1
  N  N36  1  0.22134127  0.20599597  0.36790546  1
  N  N37  1  0.11095607  0.09476677  0.11787246  1
  N  N38  1  0.89076618  0.20535001  0.86568994  1
  N  N39  1  0.76623256  0.11419110  0.62542210  1
  N  N40  1  0.55609459  0.20585704  0.36664383  1
  N  N41  1  0.44400030  0.09466637  0.11900186  1
  N  N42  1  0.22272800  0.20530257  0.86833779  1
  N  N43  1  0.11295279  0.09316502  0.61898472  1
  N  N44  1  0.89901210  0.18399006  0.37362372  1
  N  N45  1  0.77725299  0.09597697  0.11316127  1
  N  N46  1  0.55314819  0.20631892  0.86993702  1
  N  N47  1  0.44505037  0.09414140  0.61707313  1
  N  N48  1  0.22202419  0.53937064  0.36730756  1
  N  N49  1  0.11095605  0.42761037  0.11787225  1
  N  N50  1  0.89076610  0.53721718  0.86568979  1
  N  N51  1  0.77757678  0.42787838  0.61162641  1
  N  N52  1  0.53430058  0.54951643  0.37444124  1
  N  N53  1  0.44470562  0.42823572  0.11765907  1
  N  N54  1  0.22305311  0.53717574  0.86975372  1
  N  N55  1  0.11295273  0.42721548  0.61898454  1
  N  N56  1  0.89901193  0.55033122  0.37362361  1
  N  N57  1  0.77726413  0.42803457  0.10562504  1
  N  N58  1  0.55444481  0.53944433  0.86387005  1
  N  N59  1  0.44353053  0.42662972  0.61947576  1
  N  N60  1  0.22202426  0.87193847  0.36730763  1
  N  N61  1  0.11259339  0.76037009  0.11452587  1
  N  N62  1  0.88944124  0.87194611  0.86278719  1
  N  N63  1  0.76623265  0.75290980  0.62542191  1
  N  N64  1  0.55609455  0.87138155  0.36664371  1
  N  N65  1  0.44470575  0.76039191  0.11765902  1
  N  N66  1  0.22305318  0.87310455  0.86975369  1
  N  N67  1  0.13207776  0.75062790  0.62345656  1
  N  N68  1  0.88904533  0.87214393  0.35311084  1
  N  N69  1  0.77725296  0.76010334  0.11316117  1
  N  N70  1  0.55314817  0.87386610  0.86993673  1
  N  N71  1  0.44353074  0.76317313  0.61947562  1
