# generated using pymatgen
data_ScAl17N18
_symmetry_space_group_name_H-M   'P 1'
_cell_length_a   9.49487254
_cell_length_b   9.49317291
_cell_length_c   10.00163262
_cell_angle_alpha   89.99999837
_cell_angle_beta   89.98552031
_cell_angle_gamma   60.00595274
_symmetry_Int_Tables_number   1
_chemical_formula_structural   ScAl17N18
_chemical_formula_sum   'Sc2 Al34 N36'
_cell_volume   780.77893718
_cell_formula_units_Z   2
loop_
 _symmetry_equiv_pos_site_id
 _symmetry_equiv_pos_as_xyz
  1  'x, y, z'
loop_
 _atom_site_type_symbol
 _atom_site_label
 _atom_site_symmetry_multiplicity
 _atom_site_fract_x
 _atom_site_fract_y
 _atom_site_fract_z
 _atom_site_occupancy
  Al  Al0  1  0.11367091  0.09067918  0.30647906  1
  Al  Al1  1  0.22236513  0.20548412  0.05675831  1
  Al  Al2  1  0.77441811  0.09912114  0.81005747  1
  Al  Al3  1  0.89067949  0.20358687  0.55975154  1
  Al  Al4  1  0.44418244  0.09457542  0.30687199  1
  Al  Al5  1  0.55394289  0.20640035  0.05676564  1
  Al  Al6  1  0.11277384  0.09365073  0.80679268  1
  Al  Al7  1  0.22241077  0.20546128  0.55676813  1
  Al  Al8  1  0.77820873  0.09201490  0.30154818  1
  Al  Al9  1  0.89003276  0.20547313  0.05255551  1
  Al  Al10  1  0.44428097  0.09452617  0.80652651  1
  Al  Al11  1  0.55289511  0.20918176  0.55627500  1
  Al  Al12  1  0.11367086  0.42898323  0.30647908  1
  Al  Al13  1  0.22289693  0.53782969  0.05647626  1
  Al  Al14  1  0.77807531  0.42762901  0.80465448  1
  Al  Al15  1  0.89067949  0.53906701  0.55975154  1
  Al  Al16  1  0.44076021  0.42920495  0.30605672  1
  Al  Al17  1  0.55454825  0.53939255  0.05236466  1
  Al  Al18  1  0.11277383  0.42690877  0.80679269  1
  Al  Al19  1  0.22616916  0.53598240  0.55598947  1
  Al  Al20  1  0.89003272  0.53782751  0.05255549  1
  Al  Al21  1  0.44352430  0.42694276  0.80640585  1
  Al  Al22  1  0.54945913  0.54193711  0.56043341  1
  Al  Al23  1  0.11236280  0.76048525  0.30271205  1
  Al  Al24  1  0.22289695  0.87260672  0.05647623  1
  Al  Al25  1  0.77441813  0.75979410  0.81005741  1
  Al  Al26  1  0.44076022  0.76336815  0.30605669  1
  Al  Al27  1  0.55394290  0.87299009  0.05676557  1
  Al  Al28  1  0.11679515  0.75826909  0.80946907  1
  Al  Al29  1  0.22616917  0.87118177  0.55598945  1
  Al  Al30  1  0.77820869  0.76310970  0.30154821  1
  Al  Al31  1  0.88944369  0.87194483  0.05510605  1
  Al  Al32  1  0.44352430  0.76286624  0.80640580  1
  Al  Al33  1  0.55289512  0.87125647  0.55627500  1
  Sc  Sc34  1  0.77740340  0.42796492  0.31492339  1
  Sc  Sc35  1  0.88897612  0.87217867  0.56252336  1
  N  N36  1  0.22134235  0.20599552  0.36410729  1
  N  N37  1  0.11095629  0.09476650  0.11407056  1
  N  N38  1  0.89076659  0.20535010  0.86187861  1
  N  N39  1  0.76623583  0.11418900  0.62161183  1
  N  N40  1  0.55609772  0.20585619  0.36284143  1
  N  N41  1  0.44400243  0.09466539  0.11520413  1
  N  N42  1  0.22272945  0.20530198  0.86454003  1
  N  N43  1  0.11295385  0.09316381  0.61518333  1
  N  N44  1  0.89901365  0.18398850  0.36981566  1
  N  N45  1  0.77725668  0.09597542  0.10935189  1
  N  N46  1  0.55315155  0.20631743  0.86613568  1
  N  N47  1  0.44505244  0.09414041  0.61327450  1
  N  N48  1  0.22202524  0.53937096  0.36350498  1
  N  N49  1  0.11095624  0.42761049  0.11407057  1
  N  N50  1  0.89076656  0.53721676  0.86187858  1
  N  N51  1  0.77757882  0.42787724  0.60781319  1
  N  N52  1  0.53430222  0.54951560  0.37063510  1
  N  N53  1  0.44470811  0.42823532  0.11385676  1
  N  N54  1  0.22305420  0.53717605  0.86595290  1
  N  N55  1  0.11295383  0.42721560  0.61518332  1
  N  N56  1  0.89901357  0.55033123  0.36981566  1
  N  N57  1  0.77726681  0.42803323  0.10181793  1
  N  N58  1  0.55444833  0.53944254  0.86006286  1
  N  N59  1  0.44353221  0.42662971  0.61567448  1
  N  N60  1  0.22202526  0.87193715  0.36350499  1
  N  N61  1  0.11259426  0.76036951  0.11071807  1
  N  N62  1  0.88944298  0.87194522  0.85897618  1
  N  N63  1  0.76623587  0.75290850  0.62161177  1
  N  N64  1  0.55609768  0.87137949  0.36284146  1
  N  N65  1  0.44470812  0.76038985  0.11385673  1
  N  N66  1  0.22305421  0.87310315  0.86595288  1
  N  N67  1  0.13207807  0.75062760  0.61965083  1
  N  N68  1  0.88904750  0.87214294  0.34929871  1
  N  N69  1  0.77725664  0.76010120  0.10935189  1
  N  N70  1  0.55315158  0.87386438  0.86613559  1
  N  N71  1  0.44353221  0.76317135  0.61567445  1
