# generated using pymatgen
data_ScAl17N18
_symmetry_space_group_name_H-M   'P 1'
_cell_length_a   9.75113167
_cell_length_b   9.74728889
_cell_length_c   9.26103899
_cell_angle_alpha   89.99999980
_cell_angle_beta   89.98963510
_cell_angle_gamma   60.01478211
_symmetry_Int_Tables_number   1
_chemical_formula_structural   ScAl17N18
_chemical_formula_sum   'Sc2 Al34 N36'
_cell_volume   762.41926950
_cell_formula_units_Z   2
loop_
 _symmetry_equiv_pos_site_id
 _symmetry_equiv_pos_as_xyz
  1  'x, y, z'
loop_
 _atom_site_type_symbol
 _atom_site_label
 _atom_site_symmetry_multiplicity
 _atom_site_fract_x
 _atom_site_fract_y
 _atom_site_fract_z
 _atom_site_occupancy
  Al  Al0  1  0.11382146  0.09141577  0.33147836  1
  Al  Al1  1  0.22325750  0.20503854  0.08162573  1
  Al  Al2  1  0.77306683  0.10059988  0.83975948  1
  Al  Al3  1  0.89133136  0.20230158  0.58694156  1
  Al  Al4  1  0.44339049  0.09497095  0.33492071  1
  Al  Al5  1  0.55279114  0.20618038  0.08458261  1
  Al  Al6  1  0.11329362  0.09315443  0.83377362  1
  Al  Al7  1  0.22183098  0.20575160  0.58389348  1
  Al  Al8  1  0.77860437  0.09164193  0.32681373  1
  Al  Al9  1  0.89059935  0.20572554  0.08007351  1
  Al  Al10  1  0.44472180  0.09430521  0.83068099  1
  Al  Al11  1  0.55315541  0.20945018  0.58053605  1
  Al  Al12  1  0.11382086  0.42809467  0.33147849  1
  Al  Al13  1  0.22269061  0.53799871  0.08377167  1
  Al  Al14  1  0.77873969  0.42729609  0.83286990  1
  Al  Al15  1  0.89133117  0.53970206  0.58694170  1
  Al  Al16  1  0.44118311  0.42967950  0.33059599  1
  Al  Al17  1  0.55462758  0.53935362  0.07724221  1
  Al  Al18  1  0.11329369  0.42688372  0.83377335  1
  Al  Al19  1  0.22640998  0.53539678  0.58068267  1
  Al  Al20  1  0.89059934  0.53700971  0.08007334  1
  Al  Al21  1  0.44287481  0.42596374  0.83373035  1
  Al  Al22  1  0.54792277  0.54270642  0.59024182  1
  Al  Al23  1  0.11208895  0.76062128  0.33059689  1
  Al  Al24  1  0.22269057  0.87264523  0.08377121  1
  Al  Al25  1  0.77306729  0.75966521  0.83975956  1
  Al  Al26  1  0.44118317  0.76246973  0.33059589  1
  Al  Al27  1  0.55279119  0.87436334  0.08458231  1
  Al  Al28  1  0.11863159  0.75734989  0.83609412  1
  Al  Al29  1  0.22641017  0.87152738  0.58068313  1
  Al  Al30  1  0.77860419  0.76308532  0.32681370  1
  Al  Al31  1  0.89041351  0.87146065  0.08228915  1
  Al  Al32  1  0.44287490  0.76449367  0.83373039  1
  Al  Al33  1  0.55315598  0.87072919  0.58053614  1
  Sc  Sc34  1  0.77622712  0.42855133  0.34901696  1
  Sc  Sc35  1  0.88830140  0.87251786  0.59848211  1
  N  N36  1  0.22072353  0.20630618  0.37665088  1
  N  N37  1  0.11176105  0.09510639  0.12432386  1
  N  N38  1  0.89121480  0.20571829  0.87374470  1
  N  N39  1  0.76516818  0.11523472  0.63387456  1
  N  N40  1  0.55634157  0.20634481  0.37212391  1
  N  N41  1  0.44290776  0.09521154  0.12883934  1
  N  N42  1  0.22377048  0.20478265  0.87454354  1
  N  N43  1  0.11323430  0.09256137  0.62729855  1
  N  N44  1  0.89940994  0.18390506  0.37896300  1
  N  N45  1  0.77745366  0.09533715  0.11827268  1
  N  N46  1  0.55186461  0.20599920  0.87930848  1
  N  N47  1  0.44563096  0.09384993  0.62220526  1
  N  N48  1  0.22250277  0.53831088  0.37291832  1
  N  N49  1  0.11176091  0.42646311  0.12432412  1
  N  N50  1  0.89121481  0.53640300  0.87374439  1
  N  N51  1  0.77831262  0.42750912  0.61792946  1
  N  N52  1  0.53323099  0.55005292  0.38291327  1
  N  N53  1  0.44494949  0.42858728  0.12378838  1
  N  N54  1  0.22292639  0.53731833  0.87866608  1
  N  N55  1  0.11323411  0.42753445  0.62729812  1
  N  N56  1  0.89940908  0.55002073  0.37896270  1
  N  N57  1  0.77650893  0.42841081  0.11534575  1
  N  N58  1  0.55456872  0.53938373  0.86901094  1
  N  N59  1  0.44285187  0.42583882  0.62796394  1
  N  N60  1  0.22250289  0.87252180  0.37291867  1
  N  N61  1  0.11224969  0.76054045  0.12279158  1
  N  N62  1  0.89033085  0.87150256  0.86856051  1
  N  N63  1  0.76516922  0.75292784  0.63387423  1
  N  N64  1  0.55634147  0.87065019  0.37212410  1
  N  N65  1  0.44494939  0.75979425  0.12378795  1
  N  N66  1  0.22292623  0.87309099  0.87866565  1
  N  N67  1  0.13316433  0.75008273  0.62878543  1
  N  N68  1  0.88840788  0.87246386  0.36372512  1
  N  N69  1  0.77745369  0.76053979  0.11827248  1
  N  N70  1  0.55186506  0.87547229  0.87930802  1
  N  N71  1  0.44285200  0.76464052  0.62796434  1
