# generated using pymatgen
data_ScAl17N18
_symmetry_space_group_name_H-M   'P 1'
_cell_length_a   9.53385114
_cell_length_b   9.53170718
_cell_length_c   9.89628317
_cell_angle_alpha   89.99999203
_cell_angle_beta   89.98479794
_cell_angle_gamma   60.00962969
_symmetry_Int_Tables_number   1
_chemical_formula_structural   ScAl17N18
_chemical_formula_sum   'Sc2 Al34 N36'
_cell_volume   778.90396914
_cell_formula_units_Z   2
loop_
 _symmetry_equiv_pos_site_id
 _symmetry_equiv_pos_as_xyz
  1  'x, y, z'
loop_
 _atom_site_type_symbol
 _atom_site_label
 _atom_site_symmetry_multiplicity
 _atom_site_fract_x
 _atom_site_fract_y
 _atom_site_fract_z
 _atom_site_occupancy
  Al  Al0  1  0.11380331  0.09074744  0.32583581  1
  Al  Al1  1  0.22256782  0.20538314  0.07621805  1
  Al  Al2  1  0.77392257  0.10007422  0.83028543  1
  Al  Al3  1  0.89109354  0.20293926  0.57920381  1
  Al  Al4  1  0.44409967  0.09461689  0.32682351  1
  Al  Al5  1  0.55385602  0.20628238  0.07686839  1
  Al  Al6  1  0.11277537  0.09364879  0.82679145  1
  Al  Al7  1  0.22237099  0.20548106  0.57662827  1
  Al  Al8  1  0.77855990  0.09139016  0.32152578  1
  Al  Al9  1  0.88990910  0.20591053  0.07310226  1
  Al  Al10  1  0.44439325  0.09446980  0.82595893  1
  Al  Al11  1  0.55284694  0.20937072  0.57559732  1
  Al  Al12  1  0.11380214  0.42878100  0.32583571  1
  Al  Al13  1  0.22277705  0.53796590  0.07646705  1
  Al  Al14  1  0.77820686  0.42756278  0.82365398  1
  Al  Al15  1  0.89109353  0.53930216  0.57920344  1
  Al  Al16  1  0.44065459  0.42934483  0.32536282  1
  Al  Al17  1  0.55500250  0.53916622  0.07228970  1
  Al  Al18  1  0.11277544  0.42690731  0.82679104  1
  Al  Al19  1  0.22628062  0.53577856  0.57531438  1
  Al  Al20  1  0.88990891  0.53751472  0.07310207  1
  Al  Al21  1  0.44346543  0.42677360  0.82641925  1
  Al  Al22  1  0.54849664  0.54241986  0.58048684  1
  Al  Al23  1  0.11178908  0.76077103  0.32319864  1
  Al  Al24  1  0.22277722  0.87259105  0.07646682  1
  Al  Al25  1  0.77392359  0.75933563  0.83028502  1
  Al  Al26  1  0.44065511  0.76333358  0.32536274  1
  Al  Al27  1  0.55385624  0.87319662  0.07686791  1
  Al  Al28  1  0.11772503  0.75780300  0.82900292  1
  Al  Al29  1  0.22628122  0.87127364  0.57531472  1
  Al  Al30  1  0.77855915  0.76338162  0.32152565  1
  Al  Al31  1  0.88963041  0.87185199  0.07393566  1
  Al  Al32  1  0.44346566  0.76309378  0.82641929  1
  Al  Al33  1  0.55284772  0.87111768  0.57559723  1
  Sc  Sc34  1  0.77697635  0.42817580  0.33776184  1
  Sc  Sc35  1  0.88873733  0.87230055  0.58586110  1
  N  N36  1  0.22128426  0.20602630  0.38239874  1
  N  N37  1  0.11115757  0.09482385  0.13193806  1
  N  N38  1  0.89067331  0.20584897  0.88043246  1
  N  N39  1  0.76565372  0.11525151  0.64004267  1
  N  N40  1  0.55614395  0.20599142  0.38060412  1
  N  N41  1  0.44383445  0.09474766  0.13363646  1
  N  N42  1  0.22295874  0.20518899  0.88244222  1
  N  N43  1  0.11300312  0.09304381  0.63352991  1
  N  N44  1  0.89948357  0.18334045  0.38751010  1
  N  N45  1  0.77749627  0.09545831  0.12727440  1
  N  N46  1  0.55290634  0.20629323  0.88464995  1
  N  N47  1  0.44524796  0.09404101  0.63106816  1
  N  N48  1  0.22206863  0.53914044  0.38124543  1
  N  N49  1  0.11115722  0.42734756  0.13193823  1
  N  N50  1  0.89067326  0.53681544  0.88043212  1
  N  N51  1  0.77768219  0.42782390  0.62433233  1
  N  N52  1  0.53317021  0.55008435  0.38894623  1
  N  N53  1  0.44473746  0.42829371  0.13167606  1
  N  N54  1  0.22305034  0.53718490  0.88436025  1
  N  N55  1  0.11300301  0.42728069  0.63352931  1
  N  N56  1  0.89948168  0.55051229  0.38750894  1
  N  N57  1  0.77709820  0.42811533  0.12214163  1
  N  N58  1  0.55483430  0.53925181  0.87796197  1
  N  N59  1  0.44330399  0.42648971  0.63403661  1
  N  N60  1  0.22206918  0.87212680  0.38124574  1
  N  N61  1  0.11212703  0.76060097  0.12915566  1
  N  N62  1  0.88959945  0.87186917  0.87546539  1
  N  N63  1  0.76565578  0.75242453  0.64004153  1
  N  N64  1  0.55614353  0.87120371  0.38060444  1
  N  N65  1  0.44473758  0.76029890  0.13167570  1
  N  N66  1  0.22305034  0.87310124  0.88435997  1
  N  N67  1  0.13300266  0.75016240  0.63742199  1
  N  N68  1  0.88887881  0.87222874  0.36997901  1
  N  N69  1  0.77749624  0.76037456  0.12727427  1
  N  N70  1  0.55290728  0.87413809  0.88464925  1
  N  N71  1  0.44330447  0.76353670  0.63403698  1
