# generated using pymatgen
data_ScAl17N18
_symmetry_space_group_name_H-M   'P 1'
_cell_length_a   9.93611186
_cell_length_b   9.93139448
_cell_length_c   8.68546691
_cell_angle_alpha   90.00000025
_cell_angle_beta   89.99619403
_cell_angle_gamma   60.01568876
_symmetry_Int_Tables_number   1
_chemical_formula_structural   ScAl17N18
_chemical_formula_sum   'Sc2 Al34 N36'
_cell_volume   742.36782560
_cell_formula_units_Z   2
loop_
 _symmetry_equiv_pos_site_id
 _symmetry_equiv_pos_as_xyz
  1  'x, y, z'
loop_
 _atom_site_type_symbol
 _atom_site_label
 _atom_site_symmetry_multiplicity
 _atom_site_fract_x
 _atom_site_fract_y
 _atom_site_fract_z
 _atom_site_occupancy
  Al  Al0  1  0.11401973  0.09171349  0.34226912  1
  Al  Al1  1  0.22337385  0.20497977  0.09196882  1
  Al  Al2  1  0.77391939  0.09877627  0.85111139  1
  Al  Al3  1  0.89066780  0.20409487  0.60034741  1
  Al  Al4  1  0.44326841  0.09503242  0.34544181  1
  Al  Al5  1  0.55283997  0.20605379  0.09481299  1
  Al  Al6  1  0.11327411  0.09312195  0.84509501  1
  Al  Al7  1  0.22175793  0.20578777  0.59522620  1
  Al  Al8  1  0.77728737  0.09351822  0.33759539  1
  Al  Al9  1  0.89144080  0.20369052  0.09113440  1
  Al  Al10  1  0.44472264  0.09430529  0.84152436  1
  Al  Al11  1  0.55291893  0.20924337  0.59172909  1
  Al  Al12  1  0.11401972  0.42760028  0.34226904  1
  Al  Al13  1  0.22270880  0.53797522  0.09416017  1
  Al  Al14  1  0.77838443  0.42747446  0.84863481  1
  Al  Al15  1  0.89066780  0.53857062  0.60034744  1
  Al  Al16  1  0.44142882  0.42912958  0.34099555  1
  Al  Al17  1  0.55278530  0.54027394  0.08778886  1
  Al  Al18  1  0.11327410  0.42693744  0.84509508  1
  Al  Al19  1  0.22608959  0.53540131  0.59242619  1
  Al  Al20  1  0.89144080  0.53820202  0.09113444  1
  Al  Al21  1  0.44299068  0.42619408  0.84502073  1
  Al  Al22  1  0.54982933  0.54175195  0.60173269  1
  Al  Al23  1  0.11416008  0.75958671  0.34160172  1
  Al  Al24  1  0.22270878  0.87264944  0.09416016  1
  Al  Al25  1  0.77391936  0.76063765  0.85111141  1
  Al  Al26  1  0.44142878  0.76277483  0.34099550  1
  Al  Al27  1  0.55283996  0.87443944  0.09481304  1
  Al  Al28  1  0.11664081  0.75834632  0.84846875  1
  Al  Al29  1  0.22608962  0.87184254  0.59242620  1
  Al  Al30  1  0.77728737  0.76252775  0.33759539  1
  Al  Al31  1  0.89024739  0.87154297  0.09659868  1
  Al  Al32  1  0.44299070  0.76414847  0.84502078  1
  Al  Al33  1  0.55291895  0.87117086  0.59172904  1
  Sc  Sc34  1  0.77640102  0.42846615  0.35332006  1
  Sc  Sc35  1  0.88855523  0.87238903  0.60358691  1
  N  N36  1  0.22084547  0.20624400  0.36632317  1
  N  N37  1  0.11249262  0.09487216  0.11269807  1
  N  N38  1  0.89127757  0.20478535  0.86334697  1
  N  N39  1  0.76669095  0.11282555  0.62069737  1
  N  N40  1  0.55570910  0.20652798  0.36117054  1
  N  N41  1  0.44279770  0.09526779  0.11836188  1
  N  N42  1  0.22394324  0.20469508  0.86308565  1
  N  N43  1  0.11282624  0.09282203  0.61668175  1
  N  N44  1  0.89853971  0.18668641  0.36474518  1
  N  N45  1  0.77669314  0.09573015  0.10801800  1
  N  N46  1  0.55226541  0.20572263  0.86846510  1
  N  N47  1  0.44549720  0.09391800  0.61112530  1
  N  N48  1  0.22282836  0.53766933  0.36169288  1
  N  N49  1  0.11249265  0.42596870  0.11269799  1
  N  N50  1  0.89127755  0.53727036  0.86334700  1
  N  N51  1  0.77821383  0.42755977  0.61515672  1
  N  N52  1  0.53584447  0.54874435  0.36975828  1
  N  N53  1  0.44470975  0.42823698  0.11248934  1
  N  N54  1  0.22270977  0.53782396  0.86778082  1
  N  N55  1  0.11282621  0.42768528  0.61668181  1
  N  N56  1  0.89853972  0.54810717  0.36474511  1
  N  N57  1  0.77647970  0.42842684  0.10108421  1
  N  N58  1  0.55378112  0.53977603  0.85921527  1
  N  N59  1  0.44315369  0.42616132  0.61739322  1
  N  N60  1  0.22282837  0.87283573  0.36169290  1
  N  N61  1  0.11289208  0.76022071  0.11266068  1
  N  N62  1  0.89039860  0.87146732  0.86537600  1
  N  N63  1  0.76669094  0.75381685  0.62069738  1
  N  N64  1  0.55570910  0.87109607  0.36117049  1
  N  N65  1  0.44470974  0.76038650  0.11248933  1
  N  N66  1  0.22270975  0.87279971  0.86778083  1
  N  N67  1  0.13074563  0.75129395  0.61520351  1
  N  N68  1  0.88843221  0.87245053  0.35026097  1
  N  N69  1  0.77669314  0.76091010  0.10801801  1
  N  N70  1  0.55226540  0.87534515  0.86846517  1
  N  N71  1  0.44315370  0.76401825  0.61739327  1
