# generated using pymatgen
data_ScAl17N18
_symmetry_space_group_name_H-M   'P 1'
_cell_length_a   9.75001598
_cell_length_b   9.74619922
_cell_length_c   9.26450228
_cell_angle_alpha   89.99999921
_cell_angle_beta   89.98971401
_cell_angle_gamma   60.01488729
_symmetry_Int_Tables_number   1
_chemical_formula_structural   ScAl17N18
_chemical_formula_sum   'Sc2 Al34 N36'
_cell_volume   762.53267449
_cell_formula_units_Z   2
loop_
 _symmetry_equiv_pos_site_id
 _symmetry_equiv_pos_as_xyz
  1  'x, y, z'
loop_
 _atom_site_type_symbol
 _atom_site_label
 _atom_site_symmetry_multiplicity
 _atom_site_fract_x
 _atom_site_fract_y
 _atom_site_fract_z
 _atom_site_occupancy
  Al  Al0  1  0.11348309  0.09056382  0.37815782  1
  Al  Al1  1  0.22191843  0.20570804  0.12800871  1
  Al  Al2  1  0.77604374  0.09428033  0.87862250  1
  Al  Al3  1  0.88802946  0.20838192  0.63188124  1
  Al  Al4  1  0.44480351  0.09426444  0.37480705  1
  Al  Al5  1  0.55334716  0.20685684  0.12492404  1
  Al  Al6  1  0.11384281  0.09383315  0.87412027  1
  Al  Al7  1  0.22324350  0.20504544  0.62378677  1
  Al  Al8  1  0.77530413  0.09771910  0.37177600  1
  Al  Al9  1  0.89357133  0.19940692  0.11895147  1
  Al  Al10  1  0.44338382  0.09497408  0.87706197  1
  Al  Al11  1  0.55281592  0.20860312  0.62721390  1
  Al  Al12  1  0.11348263  0.42928482  0.37815779  1
  Al  Al13  1  0.22376144  0.53552428  0.12496895  1
  Al  Al14  1  0.77622492  0.42855342  0.87643714  1
  Al  Al15  1  0.88802969  0.53692365  0.63188128  1
  Al  Al16  1  0.44022609  0.42848886  0.37801282  1
  Al  Al17  1  0.54799996  0.54266772  0.12261564  1
  Al  Al18  1  0.11384273  0.42565578  0.87412053  1
  Al  Al19  1  0.22545711  0.53754295  0.62809750  1
  Al  Al20  1  0.89357092  0.54035653  0.11895135  1
  Al  Al21  1  0.44394754  0.42736967  0.87492631  1
  Al  Al22  1  0.55455787  0.53938872  0.62810158  1
  Al  Al23  1  0.11872212  0.75730440  0.36846967  1
  Al  Al24  1  0.22376145  0.87404881  0.12496899  1
  Al  Al25  1  0.77604378  0.76300782  0.87862277  1
  Al  Al26  1  0.44022613  0.76461743  0.37801317  1
  Al  Al27  1  0.55334703  0.87313104  0.12492434  1
  Al  Al28  1  0.11200060  0.76066554  0.88145110  1
  Al  Al29  1  0.22545716  0.87033421  0.62809741  1
  Al  Al30  1  0.77530421  0.76030845  0.37177569  1
  Al  Al31  1  0.88789672  0.87271910  0.12586411  1
  Al  Al32  1  0.44394751  0.76201481  0.87492602  1
  Al  Al33  1  0.55281654  0.87191578  0.62721378  1
  Sc  Sc34  1  0.77833808  0.42749591  0.36021299  1
  Sc  Sc35  1  0.89041177  0.87146253  0.60967231  1
  N  N36  1  0.22100714  0.20616449  0.33639060  1
  N  N37  1  0.11477046  0.09401344  0.07930350  1
  N  N38  1  0.88918112  0.20468126  0.84032774  1
  N  N39  1  0.76722458  0.11612093  0.57963666  1
  N  N40  1  0.55340473  0.20745139  0.33130983  1
  N  N41  1  0.44287129  0.09522959  0.08405411  1
  N  N42  1  0.22372577  0.20480528  0.82977774  1
  N  N43  1  0.11029579  0.09367078  0.58647726  1
  N  N44  1  0.90147351  0.18476813  0.32472920  1
  N  N45  1  0.77542592  0.09429024  0.08485925  1
  N  N46  1  0.55487919  0.20490992  0.83427611  1
  N  N47  1  0.44591113  0.09370966  0.58196013  1
  N  N48  1  0.22378492  0.53537579  0.33064315  1
  N  N49  1  0.11476995  0.42454628  0.07930389  1
  N  N50  1  0.88918113  0.53947406  0.84032788  1
  N  N51  1  0.77822945  0.42755060  0.59486071  1
  N  N52  1  0.53346510  0.54993617  0.32981252  1
  N  N53  1  0.44371170  0.42692242  0.07994357  1
  N  N54  1  0.22168826  0.54022068  0.83481506  1
  N  N55  1  0.11029594  0.42936309  0.58647702  1
  N  N56  1  0.90147264  0.54709481  0.32472957  1
  N  N57  1  0.77630869  0.42851081  0.09007159  1
  N  N58  1  0.55439201  0.53947222  0.83581516  1
  N  N59  1  0.44413582  0.42749508  0.58568156  1
  N  N60  1  0.22378486  0.87417512  0.33064357  1
  N  N61  1  0.11206278  0.76063370  0.08959062  1
  N  N62  1  0.89012775  0.87160429  0.84323618  1
  N  N63  1  0.76722547  0.74998485  0.57963689  1
  N  N64  1  0.55340478  0.87248093  0.33131024  1
  N  N65  1  0.44371144  0.76269670  0.07994330  1
  N  N66  1  0.22168819  0.87142709  0.83481472  1
  N  N67  1  0.13341895  0.74995520  0.57568983  1
  N  N68  1  0.88832529  0.87250544  0.34070652  1
  N  N69  1  0.77542589  0.76361398  0.08485962  1
  N  N70  1  0.55487939  0.87354733  0.83427585  1
  N  N71  1  0.44413594  0.76169979  0.58568183  1
