# generated using pymatgen
data_ScAl17N18
_symmetry_space_group_name_H-M   'P 1'
_cell_length_a   9.49488550
_cell_length_b   9.49318254
_cell_length_c   10.00161287
_cell_angle_alpha   89.99999060
_cell_angle_beta   89.98550022
_cell_angle_gamma   60.00595368
_symmetry_Int_Tables_number   1
_chemical_formula_structural   ScAl17N18
_chemical_formula_sum   'Sc2 Al34 N36'
_cell_volume   780.77926061
_cell_formula_units_Z   2
loop_
 _symmetry_equiv_pos_site_id
 _symmetry_equiv_pos_as_xyz
  1  'x, y, z'
loop_
 _atom_site_type_symbol
 _atom_site_label
 _atom_site_symmetry_multiplicity
 _atom_site_fract_x
 _atom_site_fract_y
 _atom_site_fract_z
 _atom_site_occupancy
  Al  Al0  1  0.11374264  0.09083261  0.40238055  1
  Al  Al1  1  0.22235674  0.20548830  0.15212897  1
  Al  Al2  1  0.77660512  0.09454127  0.90609996  1
  Al  Al3  1  0.88842886  0.20799950  0.65710663  1
  Al  Al4  1  0.44422708  0.09455314  0.40188685  1
  Al  Al5  1  0.55386382  0.20636384  0.15186243  1
  Al  Al6  1  0.11269485  0.09361417  0.90188960  1
  Al  Al7  1  0.22245547  0.20543895  0.65178310  1
  Al  Al8  1  0.77595821  0.09642760  0.39890289  1
  Al  Al9  1  0.89221982  0.20089326  0.14859775  1
  Al  Al10  1  0.44427258  0.09453038  0.90189717  1
  Al  Al11  1  0.55296703  0.20933513  0.65217646  1
  Al  Al12  1  0.11374262  0.42875807  0.40238055  1
  Al  Al13  1  0.22311354  0.53714813  0.15224942  1
  Al  Al14  1  0.77719421  0.42806953  0.90354966  1
  Al  Al15  1  0.88842884  0.53690497  0.65710658  1
  Al  Al16  1  0.44046854  0.42883279  0.40266619  1
  Al  Al17  1  0.54984252  0.54174540  0.14918577  1
  Al  Al18  1  0.11269483  0.42702432  0.90188958  1
  Al  Al19  1  0.22587755  0.53664647  0.65259917  1
  Al  Al20  1  0.89221980  0.54022026  0.14859775  1
  Al  Al21  1  0.44374093  0.42740767  0.90217924  1
  Al  Al22  1  0.55427497  0.53952919  0.65594357  1
  Al  Al23  1  0.11717882  0.75807725  0.39822150  1
  Al  Al24  1  0.22311355  0.87307165  0.15224944  1
  Al  Al25  1  0.77660512  0.76218690  0.90609995  1
  Al  Al26  1  0.44046855  0.76403199  0.40266619  1
  Al  Al27  1  0.55386380  0.87310569  0.15186243  1
  Al  Al28  1  0.11208945  0.76062195  0.90629064  1
  Al  Al29  1  0.22587753  0.87080937  0.65259917  1
  Al  Al30  1  0.77595820  0.76094750  0.39890285  1
  Al  Al31  1  0.88856263  0.87238536  0.15400073  1
  Al  Al32  1  0.44374094  0.76218469  0.90217923  1
  Al  Al33  1  0.55296702  0.87103122  0.65217645  1
  Sc  Sc34  1  0.77766130  0.42783596  0.39613159  1
  Sc  Sc35  1  0.88923433  0.87204948  0.64373126  1
  N  N36  1  0.22158530  0.20587404  0.34538123  1
  N  N37  1  0.11348626  0.09369699  0.09251997  1
  N  N38  1  0.88938107  0.20403900  0.84930360  1
  N  N39  1  0.76762400  0.11602590  0.58883939  1
  N  N40  1  0.55368379  0.20685084  0.34347197  1
  N  N41  1  0.44390824  0.09471254  0.09411564  1
  N  N42  1  0.22263547  0.20534896  0.84345138  1
  N  N43  1  0.11054009  0.09415811  0.59581440  1
  N  N44  1  0.90040202  0.18582557  0.33704381  1
  N  N45  1  0.77587121  0.09466436  0.09677710  1
  N  N46  1  0.55568163  0.20524784  0.84458538  1
  N  N47  1  0.44529559  0.09401887  0.59454811  1
  N  N48  1  0.22310569  0.53684296  0.34298108  1
  N  N49  1  0.11348625  0.42615003  0.09251995  1
  N  N50  1  0.88938104  0.53991330  0.84930357  1
  N  N51  1  0.77759005  0.42787160  0.60935675  1
  N  N52  1  0.53455940  0.54938699  0.33900451  1
  N  N53  1  0.44358355  0.42691133  0.09270269  1
  N  N54  1  0.22192978  0.53962462  0.84479930  1
  N  N55  1  0.11054009  0.42863512  0.59581438  1
  N  N56  1  0.90040198  0.54710575  0.33704380  1
  N  N57  1  0.77719481  0.42806923  0.09967961  1
  N  N58  1  0.55404368  0.53964484  0.84793782  1
  N  N59  1  0.44461250  0.42807732  0.59515107  1
  N  N60  1  0.22310571  0.87338471  0.34298110  1
  N  N61  1  0.11218950  0.76057190  0.09859257  1
  N  N62  1  0.88937097  0.87198120  0.85683748  1
  N  N63  1  0.76762398  0.74968339  0.58883935  1
  N  N64  1  0.55368377  0.87279879  0.34347193  1
  N  N65  1  0.44358355  0.76283841  0.09270269  1
  N  N66  1  0.22192979  0.87177900  0.84479929  1
  N  N67  1  0.13233565  0.75049884  0.58802035  1
  N  N68  1  0.88905911  0.87213714  0.35084184  1
  N  N69  1  0.77587120  0.76279774  0.09677713  1
  N  N70  1  0.55568162  0.87240393  0.84458536  1
  N  N71  1  0.44461250  0.76064350  0.59515108  1
