
#======================================================================
# CRYSTAL DATA
#----------------------------------------------------------------------
data_VESTA_phase_1

_chemical_name_common                  'Mg   Al   Hf   N                      '
_cell_length_a                         9.518554
_cell_length_b                         9.530746
_cell_length_c                         10.070230
_cell_angle_alpha                      90.016251
_cell_angle_beta                       90.000000
_cell_angle_gamma                      60.042313
_cell_volume                           791.503556
_space_group_name_H-M_alt              'P 1'
_space_group_IT_number                 1

loop_
_space_group_symop_operation_xyz
   'x, y, z'

loop_
   _atom_site_label
   _atom_site_occupancy
   _atom_site_fract_x
   _atom_site_fract_y
   _atom_site_fract_z
   _atom_site_adp_type
   _atom_site_U_iso_or_equiv
   _atom_site_type_symbol
   Mg1        1.0     0.112565     0.093519     0.305777    Uiso  ? Mg
   Mg2        1.0     0.777248     0.093519     0.305777    Uiso  ? Mg
   Al1        1.0     0.220218     0.207158     0.058814    Uiso  ? Al
   Al2        1.0     0.773766     0.090438     0.816586    Uiso  ? Al
   Al3        1.0     0.440489     0.102355     0.305017    Uiso  ? Al
   Al4        1.0     0.555958     0.207158     0.058814    Uiso  ? Al
   Al5        1.0     0.119129     0.090438     0.816586    Uiso  ? Al
   Al6        1.0     0.222903     0.211563     0.555645    Uiso  ? Al
   Al7        1.0     0.888994     0.205345     0.052385    Uiso  ? Al
   Al8        1.0     0.440752     0.101829     0.814938    Uiso  ? Al
   Al9        1.0     0.548867     0.211563     0.555645    Uiso  ? Al
   Al10       1.0     0.113400     0.427139     0.309562    Uiso  ? Al
   Al11       1.0     0.222135     0.539064     0.059862    Uiso  ? Al
   Al12       1.0     0.773661     0.436011     0.813998    Uiso  ? Al
   Al13       1.0     0.893775     0.539197     0.555583    Uiso  ? Al
   Al14       1.0     0.442794     0.427139     0.309562    Uiso  ? Al
   Al15       1.0     0.554861     0.537940     0.060897    Uiso  ? Al
   Al16       1.0     0.111270     0.428486     0.809816    Uiso  ? Al
   Al17       1.0     0.222255     0.538824     0.557633    Uiso  ? Al
   Al18       1.0     0.776958     0.429417     0.306556    Uiso  ? Al
   Al19       1.0     0.890532     0.537940     0.060897    Uiso  ? Al
   Al20       1.0     0.443577     0.428486     0.809816    Uiso  ? Al
   Al21       1.0     0.550362     0.539197     0.555583    Uiso  ? Al
   Al22       1.0     0.113066     0.757202     0.309842    Uiso  ? Al
   Al23       1.0     0.219814     0.872940     0.058694    Uiso  ? Al
   Al24       1.0     0.784379     0.757209     0.815292    Uiso  ? Al
   Al25       1.0     0.895488     0.864282     0.556613    Uiso  ? Al
   Al26       1.0     0.441511     0.758941     0.304271    Uiso  ? Al
   Al27       1.0     0.555049     0.873236     0.058081    Uiso  ? Al
   Al28       1.0     0.112021     0.759291     0.809790    Uiso  ? Al
   Al29       1.0     0.223564     0.864282     0.556613    Uiso  ? Al
   Al30       1.0     0.782881     0.758941     0.304271    Uiso  ? Al
   Al31       1.0     0.890579     0.872940     0.058694    Uiso  ? Al
   Al32       1.0     0.441745     0.757209     0.815292    Uiso  ? Al
   Hf1        1.0     0.888708     0.205917     0.572426    Uiso  ? Hf
   Hf2        1.0     0.554933     0.873466     0.566068    Uiso  ? Hf
   N1         1.0     0.228232     0.212406     0.370083    Uiso  ? N
   N2         1.0     0.109564     0.095287     0.099347    Uiso  ? N
   N3         1.0     0.887893     0.207548     0.851925    Uiso  ? N
   N4         1.0     0.766423     0.081808     0.622828    Uiso  ? N
   N5         1.0     0.542696     0.212406     0.370083    Uiso  ? N
   N6         1.0     0.444161     0.095010     0.113777    Uiso  ? N
   N7         1.0     0.221778     0.209220     0.868500    Uiso  ? N
   N8         1.0     0.135102     0.081808     0.622828    Uiso  ? N
   N9         1.0     0.880943     0.221447     0.374015    Uiso  ? N
   N10        1.0     0.778483     0.095287     0.099347    Uiso  ? N
   N11        1.0     0.552335     0.209220     0.868500    Uiso  ? N
   N12        1.0     0.435503     0.112327     0.625320    Uiso  ? N
   N13        1.0     0.222565     0.538203     0.368154    Uiso  ? N
   N14        1.0     0.111346     0.428394     0.118159    Uiso  ? N
   N15        1.0     0.890847     0.537976     0.870915    Uiso  ? N
   N16        1.0     0.765932     0.451469     0.623408    Uiso  ? N
   N17        1.0     0.555377     0.539964     0.365614    Uiso  ? N
   N18        1.0     0.443593     0.428394     0.118159    Uiso  ? N
   N19        1.0     0.222414     0.538505     0.867891    Uiso  ? N
   N20        1.0     0.109969     0.428862     0.618621    Uiso  ? N
   N21        1.0     0.887993     0.539964     0.365614    Uiso  ? N
   N22        1.0     0.777882     0.427569     0.114203    Uiso  ? N
   N23        1.0     0.554511     0.537976     0.870915    Uiso  ? N
   N24        1.0     0.444502     0.428862     0.618621    Uiso  ? N
   N25        1.0     0.229961     0.856695     0.370579    Uiso  ? N
   N26        1.0     0.111626     0.760081     0.117706    Uiso  ? N
   N27        1.0     0.892031     0.868786     0.868397    Uiso  ? N
   N28        1.0     0.794757     0.751210     0.624597    Uiso  ? N
   N29        1.0     0.555381     0.872571     0.358837    Uiso  ? N
   N30        1.0     0.444209     0.761569     0.113912    Uiso  ? N
   N31        1.0     0.222516     0.868786     0.868397    Uiso  ? N
   N32        1.0     0.111940     0.759454     0.619920    Uiso  ? N
   N33        1.0     0.896677     0.856695     0.370579    Uiso  ? N
   N34        1.0     0.777556     0.761569     0.113912    Uiso  ? N
   N35        1.0     0.555378     0.872577     0.860635    Uiso  ? N
   N36        1.0     0.437366     0.751210     0.624597    Uiso  ? N
