
#======================================================================
# CRYSTAL DATA
#----------------------------------------------------------------------
data_VESTA_phase_1

_chemical_name_common                  'Mg   Al   Hf   N                      '
_cell_length_a                         9.872334
_cell_length_b                         9.895860
_cell_length_c                         9.026681
_cell_angle_alpha                      90.011604
_cell_angle_beta                       90.000000
_cell_angle_gamma                      60.078617
_cell_volume                           764.320672
_space_group_name_H-M_alt              'P 1'
_space_group_IT_number                 1

loop_
_space_group_symop_operation_xyz
   'x, y, z'

loop_
   _atom_site_label
   _atom_site_occupancy
   _atom_site_fract_x
   _atom_site_fract_y
   _atom_site_fract_z
   _atom_site_adp_type
   _atom_site_U_iso_or_equiv
   _atom_site_type_symbol
   Mg1        1.0     0.120492     0.089045     0.355411    Uiso  ? Mg
   Mg2        1.0     0.773796     0.089045     0.355411    Uiso  ? Mg
   Al1        1.0     0.219866     0.209394     0.123620    Uiso  ? Al
   Al2        1.0     0.776558     0.093265     0.870107    Uiso  ? Al
   Al3        1.0     0.437911     0.107511     0.361294    Uiso  ? Al
   Al4        1.0     0.554073     0.209394     0.123620    Uiso  ? Al
   Al5        1.0     0.113510     0.093265     0.870107    Uiso  ? Al
   Al6        1.0     0.221524     0.210119     0.620953    Uiso  ? Al
   Al7        1.0     0.888412     0.206510     0.126685    Uiso  ? Al
   Al8        1.0     0.442318     0.098698     0.878584    Uiso  ? Al
   Al9        1.0     0.551691     0.210119     0.620953    Uiso  ? Al
   Al10       1.0     0.111271     0.428973     0.372315    Uiso  ? Al
   Al11       1.0     0.222037     0.539259     0.124847    Uiso  ? Al
   Al12       1.0     0.777025     0.429284     0.876885    Uiso  ? Al
   Al13       1.0     0.892315     0.540024     0.626264    Uiso  ? Al
   Al14       1.0     0.443090     0.428973     0.372315    Uiso  ? Al
   Al15       1.0     0.554396     0.537078     0.119417    Uiso  ? Al
   Al16       1.0     0.113027     0.428065     0.872399    Uiso  ? Al
   Al17       1.0     0.222709     0.537916     0.621152    Uiso  ? Al
   Al18       1.0     0.772823     0.437688     0.361716    Uiso  ? Al
   Al19       1.0     0.891859     0.537078     0.119417    Uiso  ? Al
   Al20       1.0     0.442242     0.428065     0.872399    Uiso  ? Al
   Al21       1.0     0.550995     0.540024     0.626264    Uiso  ? Al
   Al22       1.0     0.113700     0.755934     0.374600    Uiso  ? Al
   Al23       1.0     0.219677     0.869648     0.122571    Uiso  ? Al
   Al24       1.0     0.780171     0.760598     0.879920    Uiso  ? Al
   Al25       1.0     0.893392     0.867151     0.622139    Uiso  ? Al
   Al26       1.0     0.440528     0.754335     0.359933    Uiso  ? Al
   Al27       1.0     0.554956     0.873422     0.123439    Uiso  ? Al
   Al28       1.0     0.112670     0.757993     0.870208    Uiso  ? Al
   Al29       1.0     0.222790     0.867151     0.622139    Uiso  ? Al
   Al30       1.0     0.788471     0.754335     0.359933    Uiso  ? Al
   Al31       1.0     0.894008     0.869648     0.122570    Uiso  ? Al
   Al32       1.0     0.442565     0.760598     0.879920    Uiso  ? Al
   Hf1        1.0     0.888467     0.206400     0.596986    Uiso  ? Hf
   Hf2        1.0     0.555250     0.872834     0.603531    Uiso  ? Hf
   N1         1.0     0.225009     0.216606     0.334214    Uiso  ? N
   N2         1.0     0.111469     0.093572     0.088466    Uiso  ? N
   N3         1.0     0.887374     0.208585     0.842028    Uiso  ? N
   N4         1.0     0.769545     0.083936     0.599081    Uiso  ? N
   N5         1.0     0.541718     0.216606     0.334214    Uiso  ? N
   N6         1.0     0.444908     0.093518     0.091321    Uiso  ? N
   N7         1.0     0.223384     0.207085     0.838981    Uiso  ? N
   N8         1.0     0.129852     0.083936     0.599081    Uiso  ? N
   N9         1.0     0.881573     0.220186     0.346570    Uiso  ? N
   N10        1.0     0.778292     0.093572     0.088466    Uiso  ? N
   N11        1.0     0.552865     0.207085     0.838981    Uiso  ? N
   N12        1.0     0.435661     0.112011     0.583041    Uiso  ? N
   N13        1.0     0.222586     0.538160     0.339854    Uiso  ? N
   N14        1.0     0.111612     0.429631     0.084414    Uiso  ? N
   N15        1.0     0.888349     0.540339     0.841104    Uiso  ? N
   N16        1.0     0.766165     0.451003     0.585338    Uiso  ? N
   N17        1.0     0.554466     0.537522     0.332071    Uiso  ? N
   N18        1.0     0.442090     0.429631     0.084414    Uiso  ? N
   N19        1.0     0.222879     0.537575     0.833804    Uiso  ? N
   N20        1.0     0.109094     0.428781     0.588662    Uiso  ? N
   N21        1.0     0.891346     0.537521     0.332071    Uiso  ? N
   N22        1.0     0.777252     0.428829     0.089653    Uiso  ? N
   N23        1.0     0.554645     0.540339     0.841104    Uiso  ? N
   N24        1.0     0.445458     0.428781     0.588662    Uiso  ? N
   N25        1.0     0.227027     0.855537     0.333579    Uiso  ? N
   N26        1.0     0.112993     0.757347     0.081711    Uiso  ? N
   N27        1.0     0.889484     0.869338     0.839401    Uiso  ? N
   N28        1.0     0.795156     0.751478     0.581685    Uiso  ? N
   N29        1.0     0.555262     0.872810     0.344602    Uiso  ? N
   N30        1.0     0.445551     0.761388     0.092424    Uiso  ? N
   N31        1.0     0.224511     0.869338     0.839401    Uiso  ? N
   N32        1.0     0.111920     0.759494     0.591037    Uiso  ? N
   N33        1.0     0.900769     0.855537     0.333579    Uiso  ? N
   N34        1.0     0.776394     0.761388     0.092424    Uiso  ? N
   N35        1.0     0.555305     0.872724     0.843090    Uiso  ? N
   N36        1.0     0.436699     0.751478     0.581685    Uiso  ? N
