
#======================================================================
# CRYSTAL DATA
#----------------------------------------------------------------------
data_VESTA_phase_1

_chemical_name_common                  'Mg   Al   Hf   N                      '
_cell_length_a                         9.518554
_cell_length_b                         9.530741
_cell_length_c                         10.070245
_cell_angle_alpha                      90.016182
_cell_angle_beta                       90.000000
_cell_angle_gamma                      60.042294
_cell_volume                           791.504133
_space_group_name_H-M_alt              'P 1'
_space_group_IT_number                 1

loop_
_space_group_symop_operation_xyz
   'x, y, z'

loop_
   _atom_site_label
   _atom_site_occupancy
   _atom_site_fract_x
   _atom_site_fract_y
   _atom_site_fract_z
   _atom_site_adp_type
   _atom_site_U_iso_or_equiv
   _atom_site_type_symbol
   Mg1        1.0     0.112562     0.093523     0.309361    Uiso  ? Mg
   Mg2        1.0     0.777248     0.093523     0.309361    Uiso  ? Mg
   Al1        1.0     0.220217     0.207159     0.062397    Uiso  ? Al
   Al2        1.0     0.773764     0.090440     0.820167    Uiso  ? Al
   Al3        1.0     0.440488     0.102357     0.308602    Uiso  ? Al
   Al4        1.0     0.555957     0.207159     0.062397    Uiso  ? Al
   Al5        1.0     0.119129     0.090440     0.820167    Uiso  ? Al
   Al6        1.0     0.222901     0.211567     0.559225    Uiso  ? Al
   Al7        1.0     0.888993     0.205347     0.055966    Uiso  ? Al
   Al8        1.0     0.440750     0.101833     0.818518    Uiso  ? Al
   Al9        1.0     0.548865     0.211567     0.559225    Uiso  ? Al
   Al10       1.0     0.113399     0.427142     0.313145    Uiso  ? Al
   Al11       1.0     0.222134     0.539066     0.063446    Uiso  ? Al
   Al12       1.0     0.773658     0.436016     0.817584    Uiso  ? Al
   Al13       1.0     0.893774     0.539199     0.559167    Uiso  ? Al
   Al14       1.0     0.442792     0.427142     0.313145    Uiso  ? Al
   Al15       1.0     0.554860     0.537943     0.064486    Uiso  ? Al
   Al16       1.0     0.111268     0.428489     0.813401    Uiso  ? Al
   Al17       1.0     0.222253     0.538826     0.561214    Uiso  ? Al
   Al18       1.0     0.776957     0.429419     0.310141    Uiso  ? Al
   Al19       1.0     0.890530     0.537943     0.064486    Uiso  ? Al
   Al20       1.0     0.443576     0.428489     0.813401    Uiso  ? Al
   Al21       1.0     0.550361     0.539199     0.559167    Uiso  ? Al
   Al22       1.0     0.113065     0.757204     0.313423    Uiso  ? Al
   Al23       1.0     0.219814     0.872942     0.062277    Uiso  ? Al
   Al24       1.0     0.784380     0.757210     0.818873    Uiso  ? Al
   Al25       1.0     0.895488     0.864284     0.560193    Uiso  ? Al
   Al26       1.0     0.441511     0.758944     0.307859    Uiso  ? Al
   Al27       1.0     0.555048     0.873238     0.061663    Uiso  ? Al
   Al28       1.0     0.112020     0.759293     0.813375    Uiso  ? Al
   Al29       1.0     0.223561     0.864284     0.560193    Uiso  ? Al
   Al30       1.0     0.782878     0.758944     0.307859    Uiso  ? Al
   Al31       1.0     0.890577     0.872942     0.062277    Uiso  ? Al
   Al32       1.0     0.441743     0.757210     0.818873    Uiso  ? Al
   Hf1        1.0     0.888706     0.205922     0.576012    Uiso  ? Hf
   Hf2        1.0     0.554933     0.873467     0.569655    Uiso  ? Hf
   N1         1.0     0.228231     0.212408     0.373665    Uiso  ? N
   N2         1.0     0.109562     0.095290     0.102930    Uiso  ? N
   N3         1.0     0.887892     0.207550     0.855506    Uiso  ? N
   N4         1.0     0.766421     0.081810     0.626410    Uiso  ? N
   N5         1.0     0.542695     0.212408     0.373665    Uiso  ? N
   N6         1.0     0.444161     0.095012     0.117362    Uiso  ? N
   N7         1.0     0.221778     0.209222     0.872083    Uiso  ? N
   N8         1.0     0.135103     0.081810     0.626410    Uiso  ? N
   N9         1.0     0.880942     0.221450     0.377606    Uiso  ? N
   N10        1.0     0.778482     0.095290     0.102931    Uiso  ? N
   N11        1.0     0.552334     0.209222     0.872083    Uiso  ? N
   N12        1.0     0.435500     0.112333     0.628901    Uiso  ? N
   N13        1.0     0.222564     0.538206     0.371736    Uiso  ? N
   N14        1.0     0.111345     0.428396     0.121743    Uiso  ? N
   N15        1.0     0.890845     0.537979     0.874502    Uiso  ? N
   N16        1.0     0.765930     0.451473     0.626994    Uiso  ? N
   N17        1.0     0.555375     0.539966     0.369199    Uiso  ? N
   N18        1.0     0.443592     0.428396     0.121743    Uiso  ? N
   N19        1.0     0.222413     0.538508     0.871475    Uiso  ? N
   N20        1.0     0.109968     0.428864     0.622205    Uiso  ? N
   N21        1.0     0.887992     0.539966     0.369199    Uiso  ? N
   N22        1.0     0.777882     0.427570     0.117789    Uiso  ? N
   N23        1.0     0.554509     0.537979     0.874502    Uiso  ? N
   N24        1.0     0.444501     0.428864     0.622205    Uiso  ? N
   N25        1.0     0.229958     0.856699     0.374161    Uiso  ? N
   N26        1.0     0.111625     0.760083     0.121288    Uiso  ? N
   N27        1.0     0.892030     0.868788     0.871980    Uiso  ? N
   N28        1.0     0.794758     0.751213     0.628179    Uiso  ? N
   N29        1.0     0.555380     0.872574     0.362427    Uiso  ? N
   N30        1.0     0.444208     0.761573     0.117499    Uiso  ? N
   N31        1.0     0.222515     0.868788     0.871980    Uiso  ? N
   N32        1.0     0.111938     0.759457     0.623504    Uiso  ? N
   N33        1.0     0.896676     0.856699     0.374161    Uiso  ? N
   N34        1.0     0.777553     0.761573     0.117499    Uiso  ? N
   N35        1.0     0.555377     0.872579     0.864215    Uiso  ? N
   N36        1.0     0.437363     0.751213     0.628179    Uiso  ? N
