
#======================================================================
# CRYSTAL DATA
#----------------------------------------------------------------------
data_VESTA_phase_1

_chemical_name_common                  'Mg   Al   Hf   N                      '
_cell_length_a                         9.784792
_cell_length_b                         9.808689
_cell_length_c                         9.296139
_cell_angle_alpha                      90.013481
_cell_angle_beta                       90.000000
_cell_angle_gamma                      60.080566
_cell_volume                           773.299599
_space_group_name_H-M_alt              'P 1'
_space_group_IT_number                 1

loop_
_space_group_symop_operation_xyz
   'x, y, z'

loop_
   _atom_site_label
   _atom_site_occupancy
   _atom_site_fract_x
   _atom_site_fract_y
   _atom_site_fract_z
   _atom_site_adp_type
   _atom_site_U_iso_or_equiv
   _atom_site_type_symbol
   Mg1        1.0     0.121877     0.088379     0.359992    Uiso  ? Mg
   Mg2        1.0     0.773077     0.088379     0.359992    Uiso  ? Mg
   Al1        1.0     0.220550     0.209360     0.126932    Uiso  ? Al
   Al2        1.0     0.777362     0.094058     0.875673    Uiso  ? Al
   Al3        1.0     0.437057     0.109220     0.367551    Uiso  ? Al
   Al4        1.0     0.553423     0.209360     0.126932    Uiso  ? Al
   Al5        1.0     0.111914     0.094058     0.875673    Uiso  ? Al
   Al6        1.0     0.221368     0.210157     0.627260    Uiso  ? Al
   Al7        1.0     0.888052     0.207228     0.134925    Uiso  ? Al
   Al8        1.0     0.443087     0.097159     0.881709    Uiso  ? Al
   Al9        1.0     0.551809     0.210157     0.627260    Uiso  ? Al
   Al10       1.0     0.111534     0.428483     0.376097    Uiso  ? Al
   Al11       1.0     0.222017     0.539299     0.129328    Uiso  ? Al
   Al12       1.0     0.777585     0.428163     0.880099    Uiso  ? Al
   Al13       1.0     0.892675     0.539930     0.630245    Uiso  ? Al
   Al14       1.0     0.443316     0.428483     0.376097    Uiso  ? Al
   Al15       1.0     0.554603     0.537363     0.123839    Uiso  ? Al
   Al16       1.0     0.112659     0.428460     0.876573    Uiso  ? Al
   Al17       1.0     0.222708     0.537918     0.624736    Uiso  ? Al
   Al18       1.0     0.772216     0.438902     0.367998    Uiso  ? Al
   Al19       1.0     0.891367     0.537363     0.123839    Uiso  ? Al
   Al20       1.0     0.442215     0.428460     0.876573    Uiso  ? Al
   Al21       1.0     0.550729     0.539930     0.630245    Uiso  ? Al
   Al22       1.0     0.113498     0.756338     0.377954    Uiso  ? Al
   Al23       1.0     0.220391     0.869068     0.125973    Uiso  ? Al
   Al24       1.0     0.778981     0.760889     0.882755    Uiso  ? Al
   Al25       1.0     0.893543     0.867214     0.628049    Uiso  ? Al
   Al26       1.0     0.439592     0.754009     0.366311    Uiso  ? Al
   Al27       1.0     0.554983     0.873367     0.130832    Uiso  ? Al
   Al28       1.0     0.112735     0.757863     0.874801    Uiso  ? Al
   Al29       1.0     0.222577     0.867214     0.628049    Uiso  ? Al
   Al30       1.0     0.789732     0.754009     0.366311    Uiso  ? Al
   Al31       1.0     0.893874     0.869068     0.125973    Uiso  ? Al
   Al32       1.0     0.443464     0.760889     0.882755    Uiso  ? Al
   Hf1        1.0     0.888806     0.205721     0.597382    Uiso  ? Hf
   Hf2        1.0     0.555151     0.873030     0.604866    Uiso  ? Hf
   N1         1.0     0.225263     0.217078     0.328301    Uiso  ? N
   N2         1.0     0.110509     0.094137     0.085926    Uiso  ? N
   N3         1.0     0.887572     0.208190     0.834428    Uiso  ? N
   N4         1.0     0.768754     0.082985     0.592765    Uiso  ? N
   N5         1.0     0.540992     0.217078     0.328301    Uiso  ? N
   N6         1.0     0.445428     0.092476     0.086047    Uiso  ? N
   N7         1.0     0.223201     0.206786     0.835382    Uiso  ? N
   N8         1.0     0.131594     0.082985     0.592765    Uiso  ? N
   N9         1.0     0.881344     0.220645     0.346104    Uiso  ? N
   N10        1.0     0.778687     0.094137     0.085926    Uiso  ? N
   N11        1.0     0.553347     0.206786     0.835382    Uiso  ? N
   N12        1.0     0.434689     0.113956     0.578374    Uiso  ? N
   N13        1.0     0.222563     0.538207     0.335926    Uiso  ? N
   N14        1.0     0.111381     0.429883     0.080365    Uiso  ? N
   N15        1.0     0.888201     0.540258     0.836321    Uiso  ? N
   N16        1.0     0.765434     0.452465     0.580276    Uiso  ? N
   N17        1.0     0.554364     0.537666     0.328178    Uiso  ? N
   N18        1.0     0.442069     0.429883     0.080365    Uiso  ? N
   N19        1.0     0.222826     0.537681     0.829576    Uiso  ? N
   N20        1.0     0.109324     0.428285     0.584235    Uiso  ? N
   N21        1.0     0.891303     0.537666     0.328178    Uiso  ? N
   N22        1.0     0.777728     0.427877     0.085150    Uiso  ? N
   N23        1.0     0.554874     0.540258     0.836321    Uiso  ? N
   N24        1.0     0.445725     0.428285     0.584235    Uiso  ? N
   N25        1.0     0.227285     0.854747     0.327811    Uiso  ? N
   N26        1.0     0.113044     0.757246     0.077875    Uiso  ? N
   N27        1.0     0.889191     0.869840     0.835774    Uiso  ? N
   N28        1.0     0.796765     0.750915     0.577124    Uiso  ? N
   N29        1.0     0.555220     0.872894     0.344472    Uiso  ? N
   N30        1.0     0.446200     0.761610     0.087313    Uiso  ? N
   N31        1.0     0.224303     0.869840     0.835774    Uiso  ? N
   N32        1.0     0.111734     0.759866     0.586298    Uiso  ? N
   N33        1.0     0.901301     0.854747     0.327811    Uiso  ? N
   N34        1.0     0.775524     0.761610     0.087313    Uiso  ? N
   N35        1.0     0.555327     0.872680     0.835178    Uiso  ? N
   N36        1.0     0.435654     0.750915     0.577124    Uiso  ? N
