
#======================================================================
# CRYSTAL DATA
#----------------------------------------------------------------------
data_VESTA_phase_1

_chemical_name_common                  'Mg   Al   Hf   N                      '
_cell_length_a                         9.518575
_cell_length_b                         9.530768
_cell_length_c                         10.070222
_cell_angle_alpha                      90.016319
_cell_angle_beta                       90.000000
_cell_angle_gamma                      60.042316
_cell_volume                           791.506557
_space_group_name_H-M_alt              'P 1'
_space_group_IT_number                 1

loop_
_space_group_symop_operation_xyz
   'x, y, z'

loop_
   _atom_site_label
   _atom_site_occupancy
   _atom_site_fract_x
   _atom_site_fract_y
   _atom_site_fract_z
   _atom_site_adp_type
   _atom_site_U_iso_or_equiv
   _atom_site_type_symbol
   Mg1        1.0     0.112568     0.093513     0.295665    Uiso  ? Mg
   Mg2        1.0     0.777253     0.093513     0.295665    Uiso  ? Mg
   Al1        1.0     0.220222     0.207150     0.048703    Uiso  ? Al
   Al2        1.0     0.773770     0.090430     0.806473    Uiso  ? Al
   Al3        1.0     0.440493     0.102347     0.294905    Uiso  ? Al
   Al4        1.0     0.555962     0.207150     0.048703    Uiso  ? Al
   Al5        1.0     0.119133     0.090430     0.806473    Uiso  ? Al
   Al6        1.0     0.222907     0.211556     0.545530    Uiso  ? Al
   Al7        1.0     0.888998     0.205338     0.042272    Uiso  ? Al
   Al8        1.0     0.440755     0.101823     0.804823    Uiso  ? Al
   Al9        1.0     0.548871     0.211556     0.545530    Uiso  ? Al
   Al10       1.0     0.113404     0.427132     0.299451    Uiso  ? Al
   Al11       1.0     0.222139     0.539056     0.049753    Uiso  ? Al
   Al12       1.0     0.773664     0.436005     0.803886    Uiso  ? Al
   Al13       1.0     0.893779     0.539189     0.545469    Uiso  ? Al
   Al14       1.0     0.442797     0.427132     0.299451    Uiso  ? Al
   Al15       1.0     0.554865     0.537933     0.050789    Uiso  ? Al
   Al16       1.0     0.111274     0.428478     0.799707    Uiso  ? Al
   Al17       1.0     0.222259     0.538816     0.547522    Uiso  ? Al
   Al18       1.0     0.776962     0.429410     0.296443    Uiso  ? Al
   Al19       1.0     0.890535     0.537933     0.050789    Uiso  ? Al
   Al20       1.0     0.443581     0.428478     0.799707    Uiso  ? Al
   Al21       1.0     0.550366     0.539189     0.545469    Uiso  ? Al
   Al22       1.0     0.113069     0.757195     0.299732    Uiso  ? Al
   Al23       1.0     0.219818     0.872933     0.048584    Uiso  ? Al
   Al24       1.0     0.784385     0.757200     0.805178    Uiso  ? Al
   Al25       1.0     0.895493     0.864274     0.546500    Uiso  ? Al
   Al26       1.0     0.441515     0.758935     0.294161    Uiso  ? Al
   Al27       1.0     0.555052     0.873228     0.047965    Uiso  ? Al
   Al28       1.0     0.112025     0.759283     0.799682    Uiso  ? Al
   Al29       1.0     0.223566     0.864274     0.546500    Uiso  ? Al
   Al30       1.0     0.782883     0.758935     0.294161    Uiso  ? Al
   Al31       1.0     0.890583     0.872933     0.048584    Uiso  ? Al
   Al32       1.0     0.441748     0.757200     0.805178    Uiso  ? Al
   Hf1        1.0     0.888712     0.205910     0.562316    Uiso  ? Hf
   Hf2        1.0     0.554938     0.873458     0.555959    Uiso  ? Hf
   N1         1.0     0.228236     0.212398     0.359969    Uiso  ? N
   N2         1.0     0.109567     0.095280     0.089235    Uiso  ? N
   N3         1.0     0.887896     0.207541     0.841812    Uiso  ? N
   N4         1.0     0.766427     0.081800     0.612715    Uiso  ? N
   N5         1.0     0.542699     0.212398     0.359969    Uiso  ? N
   N6         1.0     0.444166     0.095002     0.103665    Uiso  ? N
   N7         1.0     0.221783     0.209212     0.858389    Uiso  ? N
   N8         1.0     0.135106     0.081800     0.612715    Uiso  ? N
   N9         1.0     0.880946     0.221441     0.363905    Uiso  ? N
   N10        1.0     0.778487     0.095280     0.089235    Uiso  ? N
   N11        1.0     0.552339     0.209212     0.858389    Uiso  ? N
   N12        1.0     0.435506     0.112320     0.615205    Uiso  ? N
   N13        1.0     0.222568     0.538197     0.358043    Uiso  ? N
   N14        1.0     0.111350     0.428386     0.108049    Uiso  ? N
   N15        1.0     0.890850     0.537969     0.860805    Uiso  ? N
   N16        1.0     0.765935     0.451463     0.613296    Uiso  ? N
   N17        1.0     0.555380     0.539957     0.355501    Uiso  ? N
   N18        1.0     0.443597     0.428386     0.108049    Uiso  ? N
   N19        1.0     0.222418     0.538497     0.857782    Uiso  ? N
   N20        1.0     0.109972     0.428854     0.608510    Uiso  ? N
   N21        1.0     0.887996     0.539957     0.355501    Uiso  ? N
   N22        1.0     0.777886     0.427561     0.104091    Uiso  ? N
   N23        1.0     0.554514     0.537969     0.860805    Uiso  ? N
   N24        1.0     0.444507     0.428854     0.608510    Uiso  ? N
   N25        1.0     0.229964     0.856689     0.360466    Uiso  ? N
   N26        1.0     0.111630     0.760074     0.107595    Uiso  ? N
   N27        1.0     0.892035     0.868778     0.858286    Uiso  ? N
   N28        1.0     0.794763     0.751202     0.614484    Uiso  ? N
   N29        1.0     0.555384     0.872564     0.348729    Uiso  ? N
   N30        1.0     0.444213     0.761563     0.103801    Uiso  ? N
   N31        1.0     0.222520     0.868778     0.858286    Uiso  ? N
   N32        1.0     0.111944     0.759446     0.609810    Uiso  ? N
   N33        1.0     0.896680     0.856689     0.360466    Uiso  ? N
   N34        1.0     0.777558     0.761563     0.103801    Uiso  ? N
   N35        1.0     0.555382     0.872569     0.850519    Uiso  ? N
   N36        1.0     0.437369     0.751202     0.614484    Uiso  ? N
