
#======================================================================
# CRYSTAL DATA
#----------------------------------------------------------------------
data_VESTA_phase_1

_chemical_name_common                  'Mg   Al   Hf   N                      '
_cell_length_a                         9.518548
_cell_length_b                         9.530742
_cell_length_c                         10.070240
_cell_angle_alpha                      90.016251
_cell_angle_beta                       90.000000
_cell_angle_gamma                      60.042316
_cell_volume                           791.503543
_space_group_name_H-M_alt              'P 1'
_space_group_IT_number                 1

loop_
_space_group_symop_operation_xyz
   'x, y, z'

loop_
   _atom_site_label
   _atom_site_occupancy
   _atom_site_fract_x
   _atom_site_fract_y
   _atom_site_fract_z
   _atom_site_adp_type
   _atom_site_U_iso_or_equiv
   _atom_site_type_symbol
   Mg1        1.0     0.112565     0.093518     0.302290    Uiso  ? Mg
   Mg2        1.0     0.777250     0.093518     0.302290    Uiso  ? Mg
   Al1        1.0     0.220220     0.207154     0.055327    Uiso  ? Al
   Al2        1.0     0.773767     0.090435     0.813097    Uiso  ? Al
   Al3        1.0     0.440491     0.102352     0.301532    Uiso  ? Al
   Al4        1.0     0.555959     0.207154     0.055327    Uiso  ? Al
   Al5        1.0     0.119131     0.090435     0.813097    Uiso  ? Al
   Al6        1.0     0.222904     0.211562     0.552155    Uiso  ? Al
   Al7        1.0     0.888996     0.205342     0.048897    Uiso  ? Al
   Al8        1.0     0.440753     0.101828     0.811448    Uiso  ? Al
   Al9        1.0     0.548868     0.211562     0.552155    Uiso  ? Al
   Al10       1.0     0.113402     0.427137     0.306076    Uiso  ? Al
   Al11       1.0     0.222136     0.539061     0.056378    Uiso  ? Al
   Al12       1.0     0.773662     0.436010     0.810513    Uiso  ? Al
   Al13       1.0     0.893776     0.539193     0.552096    Uiso  ? Al
   Al14       1.0     0.442795     0.427137     0.306076    Uiso  ? Al
   Al15       1.0     0.554862     0.537938     0.057416    Uiso  ? Al
   Al16       1.0     0.111271     0.428484     0.806332    Uiso  ? Al
   Al17       1.0     0.222256     0.538821     0.554146    Uiso  ? Al
   Al18       1.0     0.776960     0.429413     0.303070    Uiso  ? Al
   Al19       1.0     0.890533     0.537938     0.057416    Uiso  ? Al
   Al20       1.0     0.443579     0.428484     0.806332    Uiso  ? Al
   Al21       1.0     0.550363     0.539193     0.552096    Uiso  ? Al
   Al22       1.0     0.113067     0.757199     0.306355    Uiso  ? Al
   Al23       1.0     0.219816     0.872937     0.055208    Uiso  ? Al
   Al24       1.0     0.784382     0.757205     0.811803    Uiso  ? Al
   Al25       1.0     0.895491     0.864279     0.553124    Uiso  ? Al
   Al26       1.0     0.441513     0.758939     0.300788    Uiso  ? Al
   Al27       1.0     0.555050     0.873233     0.054592    Uiso  ? Al
   Al28       1.0     0.112023     0.759288     0.806306    Uiso  ? Al
   Al29       1.0     0.223564     0.864279     0.553124    Uiso  ? Al
   Al30       1.0     0.782881     0.758939     0.300788    Uiso  ? Al
   Al31       1.0     0.890580     0.872937     0.055208    Uiso  ? Al
   Al32       1.0     0.441746     0.757205     0.811803    Uiso  ? Al
   Hf1        1.0     0.888709     0.205915     0.568942    Uiso  ? Hf
   Hf2        1.0     0.554935     0.873464     0.562585    Uiso  ? Hf
   N1         1.0     0.228233     0.212403     0.366595    Uiso  ? N
   N2         1.0     0.109564     0.095285     0.095861    Uiso  ? N
   N3         1.0     0.887894     0.207545     0.848437    Uiso  ? N
   N4         1.0     0.766424     0.081805     0.619340    Uiso  ? N
   N5         1.0     0.542697     0.212403     0.366595    Uiso  ? N
   N6         1.0     0.444163     0.095007     0.110292    Uiso  ? N
   N7         1.0     0.221780     0.209217     0.865014    Uiso  ? N
   N8         1.0     0.135105     0.081805     0.619340    Uiso  ? N
   N9         1.0     0.880944     0.221445     0.370532    Uiso  ? N
   N10        1.0     0.778484     0.095285     0.095861    Uiso  ? N
   N11        1.0     0.552336     0.209217     0.865014    Uiso  ? N
   N12        1.0     0.435503     0.112327     0.621831    Uiso  ? N
   N13        1.0     0.222566     0.538201     0.364668    Uiso  ? N
   N14        1.0     0.111348     0.428391     0.114674    Uiso  ? N
   N15        1.0     0.890848     0.537974     0.867432    Uiso  ? N
   N16        1.0     0.765933     0.451468     0.619923    Uiso  ? N
   N17        1.0     0.555378     0.539961     0.362129    Uiso  ? N
   N18        1.0     0.443595     0.428391     0.114674    Uiso  ? N
   N19        1.0     0.222415     0.538502     0.864407    Uiso  ? N
   N20        1.0     0.109970     0.428860     0.615136    Uiso  ? N
   N21        1.0     0.887994     0.539961     0.362129    Uiso  ? N
   N22        1.0     0.777884     0.427565     0.110718    Uiso  ? N
   N23        1.0     0.554512     0.537974     0.867432    Uiso  ? N
   N24        1.0     0.444504     0.428860     0.615136    Uiso  ? N
   N25        1.0     0.229961     0.856693     0.367091    Uiso  ? N
   N26        1.0     0.111627     0.760079     0.114220    Uiso  ? N
   N27        1.0     0.892032     0.868783     0.864910    Uiso  ? N
   N28        1.0     0.794761     0.751207     0.621109    Uiso  ? N
   N29        1.0     0.555382     0.872569     0.355356    Uiso  ? N
   N30        1.0     0.444210     0.761568     0.110428    Uiso  ? N
   N31        1.0     0.222518     0.868783     0.864910    Uiso  ? N
   N32        1.0     0.111941     0.759451     0.616435    Uiso  ? N
   N33        1.0     0.896679     0.856693     0.367091    Uiso  ? N
   N34        1.0     0.777555     0.761568     0.110428    Uiso  ? N
   N35        1.0     0.555380     0.872574     0.857145    Uiso  ? N
   N36        1.0     0.437366     0.751207     0.621109    Uiso  ? N
