
#======================================================================
# CRYSTAL DATA
#----------------------------------------------------------------------
data_VESTA_phase_1

_chemical_name_common                  'Mg   Al   Hf   N '
_cell_length_a                         9.526062
_cell_length_b                         9.547148
_cell_length_c                         10.044317
_cell_angle_alpha                      90.031822
_cell_angle_beta                       90.000000
_cell_angle_gamma                      60.073036
_cell_volume                           791.693657
_space_group_name_H-M_alt              'P 1'
_space_group_IT_number                 1

loop_
_space_group_symop_operation_xyz
   'x, y, z'

loop_
   _atom_site_label
   _atom_site_occupancy
   _atom_site_fract_x
   _atom_site_fract_y
   _atom_site_fract_z
   _atom_site_adp_type
   _atom_site_U_iso_or_equiv
   _atom_site_type_symbol
   Mg1        1.0     0.120047     0.089524     0.403071    Uiso  ? Mg
   Mg2        1.0     0.773762     0.089524     0.403071    Uiso  ? Mg
   Al1        1.0     0.221608     0.208047     0.162380    Uiso  ? Al
   Al2        1.0     0.777184     0.093614     0.915531    Uiso  ? Al
   Al3        1.0     0.437937     0.107460     0.404449    Uiso  ? Al
   Al4        1.0     0.553679     0.208047     0.162380    Uiso  ? Al
   Al5        1.0     0.112536     0.093614     0.915531    Uiso  ? Al
   Al6        1.0     0.221471     0.211158     0.665161    Uiso  ? Al
   Al7        1.0     0.887961     0.207411     0.171610    Uiso  ? Al
   Al8        1.0     0.443110     0.097114     0.916970    Uiso  ? Al
   Al9        1.0     0.550704     0.211158     0.665161    Uiso  ? Al
   Al10       1.0     0.112272     0.427146     0.409171    Uiso  ? Al
   Al11       1.0     0.222094     0.539145     0.164349    Uiso  ? Al
   Al12       1.0     0.777007     0.429319     0.915696    Uiso  ? Al
   Al13       1.0     0.894050     0.539619     0.663329    Uiso  ? Al
   Al14       1.0     0.443916     0.427146     0.409171    Uiso  ? Al
   Al15       1.0     0.555079     0.538257     0.161681    Uiso  ? Al
   Al16       1.0     0.111735     0.428920     0.913171    Uiso  ? Al
   Al17       1.0     0.222473     0.538387     0.660275    Uiso  ? Al
   Al18       1.0     0.773595     0.436144     0.405275    Uiso  ? Al
   Al19       1.0     0.889997     0.538257     0.161681    Uiso  ? Al
   Al20       1.0     0.442678     0.428920     0.913171    Uiso  ? Al
   Al21       1.0     0.549665     0.539619     0.663329    Uiso  ? Al
   Al22       1.0     0.112772     0.757789     0.409468    Uiso  ? Al
   Al23       1.0     0.221790     0.869541     0.161795    Uiso  ? Al
   Al24       1.0     0.779895     0.759666     0.916761    Uiso  ? Al
   Al25       1.0     0.894974     0.866526     0.665392    Uiso  ? Al
   Al26       1.0     0.439541     0.756308     0.405006    Uiso  ? Al
   Al27       1.0     0.555205     0.872924     0.166106    Uiso  ? Al
   Al28       1.0     0.112499     0.758335     0.913138    Uiso  ? Al
   Al29       1.0     0.221833     0.866526     0.665392    Uiso  ? Al
   Al30       1.0     0.787484     0.756309     0.405006    Uiso  ? Al
   Al31       1.0     0.892002     0.869541     0.161795    Uiso  ? Al
   Al32       1.0     0.443772     0.759666     0.916761    Uiso  ? Al
   Hf1        1.0     0.888668     0.205997     0.645368    Uiso  ? Hf
   Hf2        1.0     0.554746     0.873841     0.647929    Uiso  ? Hf
   N1         1.0     0.226333     0.215669     0.347298    Uiso  ? N
   N2         1.0     0.110628     0.094206     0.106620    Uiso  ? N
   N3         1.0     0.888220     0.206894     0.857822    Uiso  ? N
   N4         1.0     0.767799     0.082472     0.613629    Uiso  ? N
   N5         1.0     0.541331     0.215669     0.347298    Uiso  ? N
   N6         1.0     0.445505     0.092323     0.104953    Uiso  ? N
   N7         1.0     0.222817     0.206626     0.856692    Uiso  ? N
   N8         1.0     0.133063     0.082472     0.613629    Uiso  ? N
   N9         1.0     0.881432     0.220469     0.361716    Uiso  ? N
   N10        1.0     0.778499     0.094206     0.106620    Uiso  ? N
   N11        1.0     0.553890     0.206626     0.856692    Uiso  ? N
   N12        1.0     0.433966     0.115402     0.598809    Uiso  ? N
   N13        1.0     0.222551     0.538230     0.355413    Uiso  ? N
   N14        1.0     0.110606     0.429663     0.102123    Uiso  ? N
   N15        1.0     0.888566     0.539484     0.854357    Uiso  ? N
   N16        1.0     0.765429     0.452476     0.600240    Uiso  ? N
   N17        1.0     0.554339     0.539032     0.351057    Uiso  ? N
   N18        1.0     0.443065     0.429663     0.102123    Uiso  ? N
   N19        1.0     0.222514     0.538305     0.851504    Uiso  ? N
   N20        1.0     0.110499     0.427551     0.603771    Uiso  ? N
   N21        1.0     0.889962     0.539032     0.351057    Uiso  ? N
   N22        1.0     0.777565     0.428203     0.104826    Uiso  ? N
   N23        1.0     0.555283     0.539484     0.854357    Uiso  ? N
   N24        1.0     0.445283     0.427551     0.603771    Uiso  ? N
   N25        1.0     0.228285     0.855341     0.347187    Uiso  ? N
   N26        1.0     0.112489     0.758356     0.100924    Uiso  ? N
   N27        1.0     0.889528     0.870245     0.856785    Uiso  ? N
   N28        1.0     0.797145     0.751623     0.598429    Uiso  ? N
   N29        1.0     0.555082     0.873170     0.364976    Uiso  ? N
   N30        1.0     0.446387     0.761063     0.105565    Uiso  ? N
   N31        1.0     0.223560     0.870245     0.856785    Uiso  ? N
   N32        1.0     0.111586     0.760162     0.604675    Uiso  ? N
   N33        1.0     0.899708     0.855341     0.347187    Uiso  ? N
   N34        1.0     0.775884     0.761063     0.105565    Uiso  ? N
   N35        1.0     0.555396     0.872542     0.857166    Uiso  ? N
   N36        1.0     0.434565     0.751623     0.598429    Uiso  ? N
