
#======================================================================
# CRYSTAL DATA
#----------------------------------------------------------------------
data_VESTA_phase_1

_chemical_name_common                  'Mg   Al   Hf   N                      '
_cell_length_a                         9.519394
_cell_length_b                         9.531617
_cell_length_c                         10.067932
_cell_angle_alpha                      90.015640
_cell_angle_beta                       90.000000
_cell_angle_gamma                      60.042416
_cell_volume                           791.465960
_space_group_name_H-M_alt              'P 1'
_space_group_IT_number                 1

loop_
_space_group_symop_operation_xyz
   'x, y, z'

loop_
   _atom_site_label
   _atom_site_occupancy
   _atom_site_fract_x
   _atom_site_fract_y
   _atom_site_fract_z
   _atom_site_adp_type
   _atom_site_U_iso_or_equiv
   _atom_site_type_symbol
   Mg1        1.0     0.112536     0.093539     0.316949    Uiso  ? Mg
   Mg2        1.0     0.777259     0.093539     0.316949    Uiso  ? Mg
   Al1        1.0     0.220213     0.207163     0.069978    Uiso  ? Al
   Al2        1.0     0.773750     0.090435     0.827748    Uiso  ? Al
   Al3        1.0     0.440499     0.102334     0.316171    Uiso  ? Al
   Al4        1.0     0.555957     0.207163     0.069978    Uiso  ? Al
   Al5        1.0     0.119148     0.090435     0.827748    Uiso  ? Al
   Al6        1.0     0.222895     0.211572     0.566766    Uiso  ? Al
   Al7        1.0     0.888990     0.205353     0.063512    Uiso  ? Al
   Al8        1.0     0.440725     0.101883     0.826079    Uiso  ? Al
   Al9        1.0     0.548867     0.211572     0.566766    Uiso  ? Al
   Al10       1.0     0.113400     0.427152     0.320694    Uiso  ? Al
   Al11       1.0     0.222134     0.539066     0.070983    Uiso  ? Al
   Al12       1.0     0.773639     0.436056     0.825156    Uiso  ? Al
   Al13       1.0     0.893771     0.539205     0.566713    Uiso  ? Al
   Al14       1.0     0.442781     0.427152     0.320694    Uiso  ? Al
   Al15       1.0     0.554856     0.537949     0.072060    Uiso  ? Al
   Al16       1.0     0.111263     0.428491     0.820955    Uiso  ? Al
   Al17       1.0     0.222252     0.538830     0.568779    Uiso  ? Al
   Al18       1.0     0.776960     0.429413     0.317710    Uiso  ? Al
   Al19       1.0     0.890528     0.537949     0.072060    Uiso  ? Al
   Al20       1.0     0.443579     0.428491     0.820955    Uiso  ? Al
   Al21       1.0     0.550357     0.539205     0.566713    Uiso  ? Al
   Al22       1.0     0.113071     0.757191     0.320965    Uiso  ? Al
   Al23       1.0     0.219812     0.872945     0.069859    Uiso  ? Al
   Al24       1.0     0.784418     0.757199     0.826431    Uiso  ? Al
   Al25       1.0     0.895490     0.864292     0.567732    Uiso  ? Al
   Al26       1.0     0.441524     0.758960     0.315433    Uiso  ? Al
   Al27       1.0     0.555046     0.873241     0.069174    Uiso  ? Al
   Al28       1.0     0.112015     0.759303     0.820932    Uiso  ? Al
   Al29       1.0     0.223551     0.864292     0.567732    Uiso  ? Al
   Al30       1.0     0.782850     0.758960     0.315433    Uiso  ? Al
   Al31       1.0     0.890576     0.872945     0.069859    Uiso  ? Al
   Al32       1.0     0.441716     0.757199     0.826431    Uiso  ? Al
   Hf1        1.0     0.888697     0.205939     0.583666    Uiso  ? Hf
   Hf2        1.0     0.554930     0.873473     0.577337    Uiso  ? Hf
   N1         1.0     0.228228     0.212415     0.381167    Uiso  ? N
   N2         1.0     0.109548     0.095297     0.110463    Uiso  ? N
   N3         1.0     0.887885     0.207564     0.862997    Uiso  ? N
   N4         1.0     0.766411     0.081804     0.633944    Uiso  ? N
   N5         1.0     0.542691     0.212415     0.381167    Uiso  ? N
   N6         1.0     0.444172     0.094989     0.124886    Uiso  ? N
   N7         1.0     0.221771     0.209235     0.879630    Uiso  ? N
   N8         1.0     0.135119     0.081804     0.633944    Uiso  ? N
   N9         1.0     0.880932     0.221469     0.385201    Uiso  ? N
   N10        1.0     0.778488     0.095297     0.110463    Uiso  ? N
   N11        1.0     0.552328     0.209235     0.879630    Uiso  ? N
   N12        1.0     0.435477     0.112380     0.636429    Uiso  ? N
   N13        1.0     0.222563     0.538207     0.379268    Uiso  ? N
   N14        1.0     0.111346     0.428405     0.129266    Uiso  ? N
   N15        1.0     0.890849     0.537986     0.882045    Uiso  ? N
   N16        1.0     0.765907     0.451520     0.634535    Uiso  ? N
   N17        1.0     0.555373     0.539969     0.376712    Uiso  ? N
   N18        1.0     0.443582     0.428405     0.129266    Uiso  ? N
   N19        1.0     0.222412     0.538510     0.878985    Uiso  ? N
   N20        1.0     0.109961     0.428864     0.629728    Uiso  ? N
   N21        1.0     0.887991     0.539969     0.376712    Uiso  ? N
   N22        1.0     0.777886     0.427561     0.125317    Uiso  ? N
   N23        1.0     0.554499     0.537986     0.882045    Uiso  ? N
   N24        1.0     0.444509     0.428864     0.629728    Uiso  ? N
   N25        1.0     0.229954     0.856697     0.381661    Uiso  ? N
   N26        1.0     0.111631     0.760072     0.128807    Uiso  ? N
   N27        1.0     0.892034     0.868791     0.879528    Uiso  ? N
   N28        1.0     0.794800     0.751201     0.635708    Uiso  ? N
   N29        1.0     0.555377     0.872579     0.370052    Uiso  ? N
   N30        1.0     0.444221     0.761586     0.125026    Uiso  ? N
   N31        1.0     0.222508     0.868791     0.879528    Uiso  ? N
   N32        1.0     0.111933     0.759467     0.631027    Uiso  ? N
   N33        1.0     0.896682     0.856697     0.381661    Uiso  ? N
   N34        1.0     0.777527     0.761586     0.125026    Uiso  ? N
   N35        1.0     0.555374     0.872585     0.871667    Uiso  ? N
   N36        1.0     0.437333     0.751201     0.635708    Uiso  ? N
