
#======================================================================
# CRYSTAL DATA
#----------------------------------------------------------------------
data_VESTA_phase_1

_chemical_name_common                  'Mg   Al   Hf   N                      '
_cell_length_a                         9.634398
_cell_length_b                         9.650616
_cell_length_c                         9.741204
_cell_angle_alpha                      90.005920
_cell_angle_beta                       90.000000
_cell_angle_gamma                      60.055584
_cell_volume                           784.812366
_space_group_name_H-M_alt              'P 1'
_space_group_IT_number                 1

loop_
_space_group_symop_operation_xyz
   'x, y, z'

loop_
   _atom_site_label
   _atom_site_occupancy
   _atom_site_fract_x
   _atom_site_fract_y
   _atom_site_fract_z
   _atom_site_adp_type
   _atom_site_U_iso_or_equiv
   _atom_site_type_symbol
   Mg1        1.0     0.112436     0.093337     0.325725    Uiso  ? Mg
   Mg2        1.0     0.777561     0.093337     0.325725    Uiso  ? Mg
   Al1        1.0     0.219790     0.207828     0.079041    Uiso  ? Al
   Al2        1.0     0.773370     0.090199     0.838818    Uiso  ? Al
   Al3        1.0     0.441579     0.100175     0.322333    Uiso  ? Al
   Al4        1.0     0.555715     0.207828     0.079041    Uiso  ? Al
   Al5        1.0     0.119765     0.090199     0.838818    Uiso  ? Al
   Al6        1.0     0.222800     0.211090     0.572138    Uiso  ? Al
   Al7        1.0     0.888835     0.205663     0.071394    Uiso  ? Al
   Al8        1.0     0.438940     0.105454     0.834512    Uiso  ? Al
   Al9        1.0     0.549444     0.211090     0.572138    Uiso  ? Al
   Al10       1.0     0.113533     0.428003     0.327120    Uiso  ? Al
   Al11       1.0     0.222319     0.538696     0.075783    Uiso  ? Al
   Al12       1.0     0.772913     0.437506     0.833839    Uiso  ? Al
   Al13       1.0     0.893239     0.539314     0.573001    Uiso  ? Al
   Al14       1.0     0.441797     0.428003     0.327120    Uiso  ? Al
   Al15       1.0     0.554448     0.537914     0.079409    Uiso  ? Al
   Al16       1.0     0.111171     0.428059     0.827108    Uiso  ? Al
   Al17       1.0     0.222211     0.538912     0.576829    Uiso  ? Al
   Al18       1.0     0.777010     0.429314     0.323769    Uiso  ? Al
   Al19       1.0     0.890972     0.537914     0.079409    Uiso  ? Al
   Al20       1.0     0.444103     0.428059     0.827108    Uiso  ? Al
   Al21       1.0     0.550780     0.539314     0.573001    Uiso  ? Al
   Al22       1.0     0.113998     0.755338     0.326479    Uiso  ? Al
   Al23       1.0     0.219923     0.872309     0.078792    Uiso  ? Al
   Al24       1.0     0.787623     0.755986     0.834179    Uiso  ? Al
   Al25       1.0     0.895377     0.864708     0.573058    Uiso  ? Al
   Al26       1.0     0.443223     0.759243     0.322274    Uiso  ? Al
   Al27       1.0     0.555193     0.872946     0.072347    Uiso  ? Al
   Al28       1.0     0.111744     0.759846     0.827793    Uiso  ? Al
   Al29       1.0     0.223248     0.864708     0.573058    Uiso  ? Al
   Al30       1.0     0.780868     0.759243     0.322274    Uiso  ? Al
   Al31       1.0     0.891102     0.872309     0.078792    Uiso  ? Al
   Al32       1.0     0.439725     0.755986     0.834179    Uiso  ? Al
   Hf1        1.0     0.888483     0.206368     0.594904    Uiso  ? Hf
   Hf2        1.0     0.554864     0.873605     0.593894    Uiso  ? Hf
   N1         1.0     0.228535     0.212539     0.380149    Uiso  ? N
   N2         1.0     0.109291     0.095181     0.111545    Uiso  ? N
   N3         1.0     0.887444     0.208446     0.864285    Uiso  ? N
   N4         1.0     0.766491     0.081536     0.636289    Uiso  ? N
   N5         1.0     0.542259     0.212539     0.380149    Uiso  ? N
   N6         1.0     0.445114     0.093106     0.125105    Uiso  ? N
   N7         1.0     0.221132     0.210305     0.883273    Uiso  ? N
   N8         1.0     0.135306     0.081536     0.636289    Uiso  ? N
   N9         1.0     0.880784     0.221766     0.387925    Uiso  ? N
   N10        1.0     0.778862     0.095181     0.111545    Uiso  ? N
   N11        1.0     0.551897     0.210305     0.883273    Uiso  ? N
   N12        1.0     0.434225     0.114884     0.638662    Uiso  ? N
   N13        1.0     0.222663     0.538008     0.382011    Uiso  ? N
   N14        1.0     0.111404     0.429314     0.130908    Uiso  ? N
   N15        1.0     0.891582     0.537835     0.884569    Uiso  ? N
   N16        1.0     0.765362     0.452610     0.637346    Uiso  ? N
   N17        1.0     0.555587     0.539923     0.377325    Uiso  ? N
   N18        1.0     0.442616     0.429314     0.130908    Uiso  ? N
   N19        1.0     0.222536     0.538262     0.878931    Uiso  ? N
   N20        1.0     0.109607     0.428305     0.630841    Uiso  ? N
   N21        1.0     0.887823     0.539924     0.377325    Uiso  ? N
   N22        1.0     0.777877     0.427579     0.125900    Uiso  ? N
   N23        1.0     0.553917     0.537835     0.884569    Uiso  ? N
   N24        1.0     0.445421     0.428305     0.630841    Uiso  ? N
   N25        1.0     0.230369     0.855806     0.380595    Uiso  ? N
   N26        1.0     0.112443     0.758447     0.129848    Uiso  ? N
   N27        1.0     0.892784     0.868499     0.883126    Uiso  ? N
   N28        1.0     0.797147     0.750392     0.637670    Uiso  ? N
   N29        1.0     0.555324     0.872684     0.377586    Uiso  ? N
   N30        1.0     0.445486     0.761908     0.125681    Uiso  ? N
   N31        1.0     0.222051     0.868499     0.883126    Uiso  ? N
   N32        1.0     0.111574     0.760185     0.632549    Uiso  ? N
   N33        1.0     0.897158     0.855806     0.380595    Uiso  ? N
   N34        1.0     0.775939     0.761908     0.125681    Uiso  ? N
   N35        1.0     0.555345     0.872644     0.868123    Uiso  ? N
   N36        1.0     0.435794     0.750392     0.637670    Uiso  ? N
