
#======================================================================
# CRYSTAL DATA
#----------------------------------------------------------------------
data_VESTA_phase_1

_chemical_name_common                  'Mg   Al   Hf   N                      '
_cell_length_a                         9.526148
_cell_length_b                         9.547313
_cell_length_c                         10.043720
_cell_angle_alpha                      90.031906
_cell_angle_beta                       90.000000
_cell_angle_gamma                      60.073360
_cell_volume                           791.669993
_space_group_name_H-M_alt              'P 1'
_space_group_IT_number                 1

loop_
_space_group_symop_operation_xyz
   'x, y, z'

loop_
   _atom_site_label
   _atom_site_occupancy
   _atom_site_fract_x
   _atom_site_fract_y
   _atom_site_fract_z
   _atom_site_adp_type
   _atom_site_U_iso_or_equiv
   _atom_site_type_symbol
   Mg1        1.0     0.120090     0.089485     0.389969    Uiso  ? Mg
   Mg2        1.0     0.773758     0.089485     0.389969    Uiso  ? Mg
   Al1        1.0     0.221606     0.208055     0.149293    Uiso  ? Al
   Al2        1.0     0.777186     0.093620     0.902434    Uiso  ? Al
   Al3        1.0     0.437937     0.107458     0.391359    Uiso  ? Al
   Al4        1.0     0.553672     0.208055     0.149293    Uiso  ? Al
   Al5        1.0     0.112527     0.093620     0.902434    Uiso  ? Al
   Al6        1.0     0.221472     0.211153     0.652067    Uiso  ? Al
   Al7        1.0     0.887968     0.207397     0.158543    Uiso  ? Al
   Al8        1.0     0.443102     0.097130     0.903880    Uiso  ? Al
   Al9        1.0     0.550708     0.211153     0.652067    Uiso  ? Al
   Al10       1.0     0.112275     0.427143     0.396093    Uiso  ? Al
   Al11       1.0     0.222095     0.539144     0.151254    Uiso  ? Al
   Al12       1.0     0.777016     0.429302     0.902589    Uiso  ? Al
   Al13       1.0     0.894050     0.539601     0.650241    Uiso  ? Al
   Al14       1.0     0.443916     0.427143     0.396093    Uiso  ? Al
   Al15       1.0     0.555089     0.538244     0.148595    Uiso  ? Al
   Al16       1.0     0.111729     0.428930     0.900076    Uiso  ? Al
   Al17       1.0     0.222476     0.538382     0.647186    Uiso  ? Al
   Al18       1.0     0.773604     0.436126     0.392188    Uiso  ? Al
   Al19       1.0     0.890000     0.538244     0.148595    Uiso  ? Al
   Al20       1.0     0.442675     0.428930     0.900076    Uiso  ? Al
   Al21       1.0     0.549682     0.539601     0.650241    Uiso  ? Al
   Al22       1.0     0.112786     0.757762     0.396389    Uiso  ? Al
   Al23       1.0     0.221799     0.869524     0.148711    Uiso  ? Al
   Al24       1.0     0.779895     0.759665     0.903678    Uiso  ? Al
   Al25       1.0     0.894975     0.866506     0.652300    Uiso  ? Al
   Al26       1.0     0.439564     0.756281     0.391920    Uiso  ? Al
   Al27       1.0     0.555204     0.872925     0.153015    Uiso  ? Al
   Al28       1.0     0.112498     0.758338     0.900039    Uiso  ? Al
   Al29       1.0     0.221852     0.866506     0.652300    Uiso  ? Al
   Al30       1.0     0.787488     0.756281     0.391920    Uiso  ? Al
   Al31       1.0     0.892011     0.869524     0.148711    Uiso  ? Al
   Al32       1.0     0.443773     0.759665     0.903678    Uiso  ? Al
   Hf1        1.0     0.888688     0.205956     0.632210    Uiso  ? Hf
   Hf2        1.0     0.554749     0.873836     0.634851    Uiso  ? Hf
   N1         1.0     0.226337     0.215668     0.334221    Uiso  ? N
   N2         1.0     0.110633     0.094199     0.093547    Uiso  ? N
   N3         1.0     0.888221     0.206891     0.844699    Uiso  ? N
   N4         1.0     0.767791     0.082445     0.600538    Uiso  ? N
   N5         1.0     0.541328     0.215668     0.334221    Uiso  ? N
   N6         1.0     0.445503     0.092328     0.091873    Uiso  ? N
   N7         1.0     0.222810     0.206638     0.843607    Uiso  ? N
   N8         1.0     0.133097     0.082445     0.600538    Uiso  ? N
   N9         1.0     0.881452     0.220430     0.348681    Uiso  ? N
   N10        1.0     0.778501     0.094199     0.093547    Uiso  ? N
   N11        1.0     0.553885     0.206638     0.843607    Uiso  ? N
   N12        1.0     0.433965     0.115404     0.585725    Uiso  ? N
   N13        1.0     0.222560     0.538214     0.342328    Uiso  ? N
   N14        1.0     0.110606     0.429666     0.089036    Uiso  ? N
   N15        1.0     0.888561     0.539488     0.841274    Uiso  ? N
   N16        1.0     0.765441     0.452450     0.587157    Uiso  ? N
   N17        1.0     0.554354     0.539008     0.337979    Uiso  ? N
   N18        1.0     0.443061     0.429666     0.089036    Uiso  ? N
   N19        1.0     0.222513     0.538308     0.838413    Uiso  ? N
   N20        1.0     0.110504     0.427545     0.590692    Uiso  ? N
   N21        1.0     0.889971     0.539008     0.337979    Uiso  ? N
   N22        1.0     0.777577     0.428180     0.091740    Uiso  ? N
   N23        1.0     0.555284     0.539488     0.841274    Uiso  ? N
   N24        1.0     0.445284     0.427546     0.590692    Uiso  ? N
   N25        1.0     0.228305     0.855305     0.334111    Uiso  ? N
   N26        1.0     0.112493     0.758348     0.087836    Uiso  ? N
   N27        1.0     0.889524     0.870244     0.843703    Uiso  ? N
   N28        1.0     0.797140     0.751604     0.585352    Uiso  ? N
   N29        1.0     0.555084     0.873165     0.351893    Uiso  ? N
   N30        1.0     0.446396     0.761052     0.092491    Uiso  ? N
   N31        1.0     0.223565     0.870244     0.843703    Uiso  ? N
   N32        1.0     0.111592     0.760149     0.591595    Uiso  ? N
   N33        1.0     0.899723     0.855305     0.334111    Uiso  ? N
   N34        1.0     0.775886     0.761052     0.092491    Uiso  ? N
   N35        1.0     0.555391     0.872551     0.844094    Uiso  ? N
   N36        1.0     0.434590     0.751604     0.585352    Uiso  ? N
