
#======================================================================
# CRYSTAL DATA
#----------------------------------------------------------------------
data_VESTA_phase_1

_chemical_name_common                  'Mg   Al   Hf   N                      '
_cell_length_a                         9.518548
_cell_length_b                         9.530740
_cell_length_c                         10.070244
_cell_angle_alpha                      90.016273
_cell_angle_beta                       90.000000
_cell_angle_gamma                      60.042305
_cell_volume                           791.503593
_space_group_name_H-M_alt              'P 1'
_space_group_IT_number                 1

loop_
_space_group_symop_operation_xyz
   'x, y, z'

loop_
   _atom_site_label
   _atom_site_occupancy
   _atom_site_fract_x
   _atom_site_fract_y
   _atom_site_fract_z
   _atom_site_adp_type
   _atom_site_U_iso_or_equiv
   _atom_site_type_symbol
   Mg1        1.0     0.112568     0.093515     0.298933    Uiso  ? Mg
   Mg2        1.0     0.777251     0.093515     0.298933    Uiso  ? Mg
   Al1        1.0     0.220220     0.207153     0.051969    Uiso  ? Al
   Al2        1.0     0.773769     0.090433     0.809741    Uiso  ? Al
   Al3        1.0     0.440491     0.102351     0.298175    Uiso  ? Al
   Al4        1.0     0.555960     0.207153     0.051969    Uiso  ? Al
   Al5        1.0     0.119131     0.090433     0.809741    Uiso  ? Al
   Al6        1.0     0.222906     0.211558     0.548801    Uiso  ? Al
   Al7        1.0     0.888997     0.205340     0.045541    Uiso  ? Al
   Al8        1.0     0.440755     0.101824     0.808095    Uiso  ? Al
   Al9        1.0     0.548869     0.211558     0.548801    Uiso  ? Al
   Al10       1.0     0.113403     0.427134     0.302717    Uiso  ? Al
   Al11       1.0     0.222137     0.539059     0.053017    Uiso  ? Al
   Al12       1.0     0.773664     0.436006     0.807157    Uiso  ? Al
   Al13       1.0     0.893777     0.539192     0.548741    Uiso  ? Al
   Al14       1.0     0.442796     0.427134     0.302717    Uiso  ? Al
   Al15       1.0     0.554864     0.537935     0.054055    Uiso  ? Al
   Al16       1.0     0.111272     0.428481     0.802972    Uiso  ? Al
   Al17       1.0     0.222257     0.538819     0.550788    Uiso  ? Al
   Al18       1.0     0.776961     0.429412     0.299714    Uiso  ? Al
   Al19       1.0     0.890534     0.537935     0.054055    Uiso  ? Al
   Al20       1.0     0.443580     0.428481     0.802972    Uiso  ? Al
   Al21       1.0     0.550365     0.539192     0.548741    Uiso  ? Al
   Al22       1.0     0.113068     0.757197     0.302997    Uiso  ? Al
   Al23       1.0     0.219817     0.872935     0.051850    Uiso  ? Al
   Al24       1.0     0.784382     0.757204     0.808449    Uiso  ? Al
   Al25       1.0     0.895491     0.864277     0.549769    Uiso  ? Al
   Al26       1.0     0.441514     0.758936     0.297429    Uiso  ? Al
   Al27       1.0     0.555051     0.873231     0.051239    Uiso  ? Al
   Al28       1.0     0.112024     0.759286     0.802946    Uiso  ? Al
   Al29       1.0     0.223566     0.864277     0.549769    Uiso  ? Al
   Al30       1.0     0.782884     0.758936     0.297429    Uiso  ? Al
   Al31       1.0     0.890582     0.872935     0.051850    Uiso  ? Al
   Al32       1.0     0.441748     0.757204     0.808449    Uiso  ? Al
   Hf1        1.0     0.888711     0.205912     0.565583    Uiso  ? Hf
   Hf2        1.0     0.554936     0.873461     0.559225    Uiso  ? Hf
   N1         1.0     0.228234     0.212401     0.363240    Uiso  ? N
   N2         1.0     0.109566     0.095282     0.092503    Uiso  ? N
   N3         1.0     0.887895     0.207542     0.845083    Uiso  ? N
   N4         1.0     0.766426     0.081803     0.615984    Uiso  ? N
   N5         1.0     0.542698     0.212401     0.363240    Uiso  ? N
   N6         1.0     0.444164     0.095006     0.106934    Uiso  ? N
   N7         1.0     0.221781     0.209215     0.861656    Uiso  ? N
   N8         1.0     0.135105     0.081803     0.615984    Uiso  ? N
   N9         1.0     0.880946     0.221442     0.367172    Uiso  ? N
   N10        1.0     0.778485     0.095282     0.092503    Uiso  ? N
   N11        1.0     0.552338     0.209215     0.861656    Uiso  ? N
   N12        1.0     0.435506     0.112322     0.618477    Uiso  ? N
   N13        1.0     0.222567     0.538199     0.361309    Uiso  ? N
   N14        1.0     0.111349     0.428389     0.111315    Uiso  ? N
   N15        1.0     0.890849     0.537971     0.864072    Uiso  ? N
   N16        1.0     0.765935     0.451464     0.616567    Uiso  ? N
   N17        1.0     0.555379     0.539959     0.358772    Uiso  ? N
   N18        1.0     0.443596     0.428389     0.111315    Uiso  ? N
   N19        1.0     0.222417     0.538500     0.861047    Uiso  ? N
   N20        1.0     0.109971     0.428858     0.611778    Uiso  ? N
   N21        1.0     0.887995     0.539959     0.358772    Uiso  ? N
   N22        1.0     0.777885     0.427563     0.107361    Uiso  ? N
   N23        1.0     0.554513     0.537971     0.864072    Uiso  ? N
   N24        1.0     0.444504     0.428858     0.611778    Uiso  ? N
   N25        1.0     0.229963     0.856691     0.363735    Uiso  ? N
   N26        1.0     0.111629     0.760076     0.110861    Uiso  ? N
   N27        1.0     0.892034     0.868781     0.861553    Uiso  ? N
   N28        1.0     0.794760     0.751206     0.617754    Uiso  ? N
   N29        1.0     0.555384     0.872566     0.351995    Uiso  ? N
   N30        1.0     0.444211     0.761564     0.107069    Uiso  ? N
   N31        1.0     0.222519     0.868781     0.861553    Uiso  ? N
   N32        1.0     0.111942     0.759449     0.613076    Uiso  ? N
   N33        1.0     0.896680     0.856691     0.363735    Uiso  ? N
   N34        1.0     0.777558     0.761564     0.107069    Uiso  ? N
   N35        1.0     0.555381     0.872572     0.853793    Uiso  ? N
   N36        1.0     0.437368     0.751206     0.617754    Uiso  ? N
