
#======================================================================
# CRYSTAL DATA
#----------------------------------------------------------------------
data_VESTA_phase_1

_chemical_name_common                  'Mg   Al   Hf   N                      '
_cell_length_a                         9.527186
_cell_length_b                         9.548451
_cell_length_c                         10.040477
_cell_angle_alpha                      90.030525
_cell_angle_beta                       89.999977
_cell_angle_gamma                      60.073719
_cell_volume                           791.597884
_space_group_name_H-M_alt              'P 1'
_space_group_IT_number                 1

loop_
_space_group_symop_operation_xyz
   'x, y, z'

loop_
   _atom_site_label
   _atom_site_occupancy
   _atom_site_fract_x
   _atom_site_fract_y
   _atom_site_fract_z
   _atom_site_adp_type
   _atom_site_U_iso_or_equiv
   _atom_site_type_symbol
   Mg1        1.0     0.120214     0.089409     0.378938    Uiso  ? Mg
   Mg2        1.0     0.773710     0.089409     0.378938    Uiso  ? Mg
   Al1        1.0     0.221610     0.208059     0.138272    Uiso  ? Al
   Al2        1.0     0.777221     0.093652     0.891411    Uiso  ? Al
   Al3        1.0     0.437910     0.107513     0.380394    Uiso  ? Al
   Al4        1.0     0.553664     0.208059     0.138272    Uiso  ? Al
   Al5        1.0     0.112460     0.093652     0.891411    Uiso  ? Al
   Al6        1.0     0.221469     0.211142     0.641099    Uiso  ? Al
   Al7        1.0     0.887971     0.207391     0.147683    Uiso  ? Al
   Al8        1.0     0.443118     0.097097     0.892861    Uiso  ? Al
   Al9        1.0     0.550723     0.211142     0.641099    Uiso  ? Al
   Al10       1.0     0.112272     0.427136     0.385117    Uiso  ? Al
   Al11       1.0     0.222096     0.539141     0.140287    Uiso  ? Al
   Al12       1.0     0.777053     0.429228     0.891572    Uiso  ? Al
   Al13       1.0     0.894054     0.539589     0.639300    Uiso  ? Al
   Al14       1.0     0.443925     0.427136     0.385117    Uiso  ? Al
   Al15       1.0     0.555096     0.538238     0.137578    Uiso  ? Al
   Al16       1.0     0.111733     0.428933     0.889090    Uiso  ? Al
   Al17       1.0     0.222482     0.538369     0.636182    Uiso  ? Al
   Al18       1.0     0.773567     0.436200     0.381237    Uiso  ? Al
   Al19       1.0     0.890000     0.538238     0.137578    Uiso  ? Al
   Al20       1.0     0.442667     0.428933     0.889090    Uiso  ? Al
   Al21       1.0     0.549690     0.539589     0.639300    Uiso  ? Al
   Al22       1.0     0.112794     0.757746     0.385416    Uiso  ? Al
   Al23       1.0     0.221805     0.869506     0.137691    Uiso  ? Al
   Al24       1.0     0.779860     0.759685     0.892670    Uiso  ? Al
   Al25       1.0     0.894975     0.866498     0.641332    Uiso  ? Al
   Al26       1.0     0.439554     0.756232     0.380950    Uiso  ? Al
   Al27       1.0     0.555204     0.872925     0.142074    Uiso  ? Al
   Al28       1.0     0.112504     0.758326     0.889041    Uiso  ? Al
   Al29       1.0     0.221861     0.866498     0.641332    Uiso  ? Al
   Al30       1.0     0.787547     0.756232     0.380950    Uiso  ? Al
   Al31       1.0     0.892022     0.869506     0.137691    Uiso  ? Al
   Al32       1.0     0.443789     0.759685     0.892670    Uiso  ? Al
   Hf1        1.0     0.888708     0.205916     0.620908    Uiso  ? Hf
   Hf2        1.0     0.554752     0.873830     0.623713    Uiso  ? Hf
   N1         1.0     0.226339     0.215683     0.323251    Uiso  ? N
   N2         1.0     0.110590     0.094216     0.082624    Uiso  ? N
   N3         1.0     0.888220     0.206894     0.833571    Uiso  ? N
   N4         1.0     0.767765     0.082396     0.589560    Uiso  ? N
   N5         1.0     0.541311     0.215683     0.323251    Uiso  ? N
   N6         1.0     0.445517     0.092299     0.080916    Uiso  ? N
   N7         1.0     0.222801     0.206640     0.832681    Uiso  ? N
   N8         1.0     0.133173     0.082396     0.589560    Uiso  ? N
   N9         1.0     0.881464     0.220406     0.337987    Uiso  ? N
   N10        1.0     0.778526     0.094217     0.082624    Uiso  ? N
   N11        1.0     0.553893     0.206640     0.832681    Uiso  ? N
   N12        1.0     0.433943     0.115448     0.574792    Uiso  ? N
   N13        1.0     0.222565     0.538203     0.331408    Uiso  ? N
   N14        1.0     0.110611     0.429675     0.078091    Uiso  ? N
   N15        1.0     0.888560     0.539489     0.830366    Uiso  ? N
   N16        1.0     0.765415     0.452504     0.576235    Uiso  ? N
   N17        1.0     0.554362     0.538991     0.327012    Uiso  ? N
   N18        1.0     0.443047     0.429675     0.078091    Uiso  ? N
   N19        1.0     0.222515     0.538304     0.827452    Uiso  ? N
   N20        1.0     0.110495     0.427533     0.579753    Uiso  ? N
   N21        1.0     0.889981     0.538991     0.327012    Uiso  ? N
   N22        1.0     0.777608     0.428117     0.080813    Uiso  ? N
   N23        1.0     0.555285     0.539489     0.830366    Uiso  ? N
   N24        1.0     0.445305     0.427533     0.579753    Uiso  ? N
   N25        1.0     0.228320     0.855263     0.323142    Uiso  ? N
   N26        1.0     0.112504     0.758326     0.076880    Uiso  ? N
   N27        1.0     0.889522     0.870251     0.832777    Uiso  ? N
   N28        1.0     0.797190     0.751564     0.574418    Uiso  ? N
   N29        1.0     0.555086     0.873161     0.341048    Uiso  ? N
   N30        1.0     0.446416     0.761060     0.081543    Uiso  ? N
   N31        1.0     0.223561     0.870251     0.832777    Uiso  ? N
   N32        1.0     0.111591     0.760151     0.580658    Uiso  ? N
   N33        1.0     0.899751     0.855263     0.323142    Uiso  ? N
   N34        1.0     0.775857     0.761060     0.081543    Uiso  ? N
   N35        1.0     0.555390     0.872554     0.833043    Uiso  ? N
   N36        1.0     0.434580     0.751564     0.574418    Uiso  ? N
