
#======================================================================
# CRYSTAL DATA
#----------------------------------------------------------------------
data_VESTA_phase_1

_chemical_name_common                  'Mg   Al   Hf   N                      '
_cell_length_a                         10.052599
_cell_length_b                         10.074266
_cell_length_c                         8.483717
_cell_angle_alpha                      90.007088
_cell_angle_beta                       90.000000
_cell_angle_gamma                      60.071140
_cell_volume                           744.593890
_space_group_name_H-M_alt              'P 1'
_space_group_IT_number                 1

loop_
_space_group_symop_operation_xyz
   'x, y, z'

loop_
   _atom_site_label
   _atom_site_occupancy
   _atom_site_fract_x
   _atom_site_fract_y
   _atom_site_fract_z
   _atom_site_adp_type
   _atom_site_U_iso_or_equiv
   _atom_site_type_symbol
   Mg1        1.0     0.118324     0.090342     0.347183    Uiso  ? Mg
   Mg2        1.0     0.774666     0.090342     0.347184    Uiso  ? Mg
   Al1        1.0     0.219138     0.208206     0.106968    Uiso  ? Al
   Al2        1.0     0.774894     0.091333     0.860733    Uiso  ? Al
   Al3        1.0     0.439718     0.103897     0.342041    Uiso  ? Al
   Al4        1.0     0.555988     0.208207     0.106968    Uiso  ? Al
   Al5        1.0     0.117106     0.091333     0.860733    Uiso  ? Al
   Al6        1.0     0.221536     0.210350     0.598978    Uiso  ? Al
   Al7        1.0     0.888996     0.205339     0.108111    Uiso  ? Al
   Al8        1.0     0.440224     0.102885     0.863341    Uiso  ? Al
   Al9        1.0     0.551448     0.210349     0.598978    Uiso  ? Al
   Al10       1.0     0.112168     0.429326     0.352765    Uiso  ? Al
   Al11       1.0     0.222318     0.538696     0.103661    Uiso  ? Al
   Al12       1.0     0.775150     0.433033     0.862363    Uiso  ? Al
   Al13       1.0     0.892623     0.539243     0.605790    Uiso  ? Al
   Al14       1.0     0.441839     0.429327     0.352765    Uiso  ? Al
   Al15       1.0     0.554152     0.537777     0.102999    Uiso  ? Al
   Al16       1.0     0.112306     0.427425     0.856063    Uiso  ? Al
   Al17       1.0     0.222399     0.538535     0.605919    Uiso  ? Al
   Al18       1.0     0.774349     0.434634     0.343265    Uiso  ? Al
   Al19       1.0     0.891403     0.537777     0.102998    Uiso  ? Al
   Al20       1.0     0.443603     0.427425     0.856063    Uiso  ? Al
   Al21       1.0     0.551466     0.539243     0.605790    Uiso  ? Al
   Al22       1.0     0.114307     0.754719     0.352772    Uiso  ? Al
   Al23       1.0     0.219616     0.871462     0.106818    Uiso  ? Al
   Al24       1.0     0.784219     0.758654     0.864116    Uiso  ? Al
   Al25       1.0     0.894225     0.866975     0.600496    Uiso  ? Al
   Al26       1.0     0.442325     0.755894     0.343350    Uiso  ? Al
   Al27       1.0     0.555154     0.873025     0.103419    Uiso  ? Al
   Al28       1.0     0.111915     0.759503     0.855693    Uiso  ? Al
   Al29       1.0     0.222135     0.866975     0.600496    Uiso  ? Al
   Al30       1.0     0.785115     0.755894     0.343350    Uiso  ? Al
   Al31       1.0     0.892255     0.871463     0.106818    Uiso  ? Al
   Al32       1.0     0.440461     0.758654     0.864116    Uiso  ? Al
   Hf1        1.0     0.888210     0.206912     0.599689    Uiso  ? Hf
   Hf2        1.0     0.554993     0.873347     0.604076    Uiso  ? Hf
   N1         1.0     0.226544     0.214185     0.352563    Uiso  ? N
   N2         1.0     0.112530     0.092823     0.095203    Uiso  ? N
   N3         1.0     0.887241     0.208850     0.859696    Uiso  ? N
   N4         1.0     0.770275     0.085253     0.613009    Uiso  ? N
   N5         1.0     0.542604     0.214186     0.352563    Uiso  ? N
   N6         1.0     0.444249     0.094835     0.102877    Uiso  ? N
   N7         1.0     0.221947     0.208502     0.856934    Uiso  ? N
   N8         1.0     0.127805     0.085253     0.613009    Uiso  ? N
   N9         1.0     0.881836     0.219660     0.348048    Uiso  ? N
   N10        1.0     0.777978     0.092824     0.095203    Uiso  ? N
   N11        1.0     0.552884     0.208502     0.856934    Uiso  ? N
   N12        1.0     0.437043     0.109248     0.607659    Uiso  ? N
   N13        1.0     0.222749     0.537834     0.354878    Uiso  ? N
   N14        1.0     0.110851     0.429590     0.102910    Uiso  ? N
   N15        1.0     0.890168     0.539348     0.856595    Uiso  ? N
   N16        1.0     0.768294     0.446744     0.608283    Uiso  ? N
   N17        1.0     0.555256     0.538652     0.351237    Uiso  ? N
   N18        1.0     0.442892     0.429590     0.102910    Uiso  ? N
   N19        1.0     0.222816     0.537701     0.852584    Uiso  ? N
   N20        1.0     0.109807     0.428805     0.604951    Uiso  ? N
   N21        1.0     0.889426     0.538651     0.351237    Uiso  ? N
   N22        1.0     0.775865     0.431603     0.101254    Uiso  ? N
   N23        1.0     0.553817     0.539349     0.856595    Uiso  ? N
   N24        1.0     0.444721     0.428805     0.604951    Uiso  ? N
   N25        1.0     0.228459     0.856737     0.352397    Uiso  ? N
   N26        1.0     0.112696     0.757941     0.101113    Uiso  ? N
   N27        1.0     0.891086     0.869234     0.856256    Uiso  ? N
   N28        1.0     0.791754     0.753458     0.605446    Uiso  ? N
   N29        1.0     0.555268     0.872798     0.346387    Uiso  ? N
   N30        1.0     0.444900     0.760407     0.103280    Uiso  ? N
   N31        1.0     0.223014     0.869234     0.856256    Uiso  ? N
   N32        1.0     0.112081     0.759172     0.606937    Uiso  ? N
   N33        1.0     0.898137     0.856738     0.352397    Uiso  ? N
   N34        1.0     0.778027     0.760407     0.103280    Uiso  ? N
   N35        1.0     0.555354     0.872626     0.861635    Uiso  ? N
   N36        1.0     0.438121     0.753459     0.605446    Uiso  ? N
