
#======================================================================
# CRYSTAL DATA
#----------------------------------------------------------------------
data_VESTA_phase_1

_chemical_name_common                  'Mg   Al   Hf   N                      '
_cell_length_a                         9.538303
_cell_length_b                         9.560231
_cell_length_c                         10.007454
_cell_angle_alpha                      90.026550
_cell_angle_beta                       89.999992
_cell_angle_gamma                      60.075890
_cell_volume                           790.906781
_space_group_name_H-M_alt              'P 1'
_space_group_IT_number                 1

loop_
_space_group_symop_operation_xyz
   'x, y, z'

loop_
   _atom_site_label
   _atom_site_occupancy
   _atom_site_fract_x
   _atom_site_fract_y
   _atom_site_fract_z
   _atom_site_adp_type
   _atom_site_U_iso_or_equiv
   _atom_site_type_symbol
   Mg1        1.0     0.121125     0.088910     0.374438    Uiso  ? Mg
   Mg2        1.0     0.773298     0.088910     0.374438    Uiso  ? Mg
   Al1        1.0     0.221609     0.208170     0.134045    Uiso  ? Al
   Al2        1.0     0.777479     0.093962     0.887098    Uiso  ? Al
   Al3        1.0     0.437638     0.108058     0.376586    Uiso  ? Al
   Al4        1.0     0.553554     0.208170     0.134045    Uiso  ? Al
   Al5        1.0     0.111892     0.093962     0.887098    Uiso  ? Al
   Al6        1.0     0.221405     0.211077     0.637209    Uiso  ? Al
   Al7        1.0     0.887940     0.207452     0.144607    Uiso  ? Al
   Al8        1.0     0.443240     0.096854     0.888617    Uiso  ? Al
   Al9        1.0     0.550852     0.211077     0.637209    Uiso  ? Al
   Al10       1.0     0.112225     0.427181     0.381303    Uiso  ? Al
   Al11       1.0     0.222080     0.539173     0.136426    Uiso  ? Al
   Al12       1.0     0.777316     0.428701     0.887291    Uiso  ? Al
   Al13       1.0     0.894032     0.539573     0.635667    Uiso  ? Al
   Al14       1.0     0.443927     0.427181     0.381303    Uiso  ? Al
   Al15       1.0     0.555096     0.538235     0.133341    Uiso  ? Al
   Al16       1.0     0.111751     0.428977     0.885081    Uiso  ? Al
   Al17       1.0     0.222511     0.538312     0.632158    Uiso  ? Al
   Al18       1.0     0.773197     0.436939     0.377474    Uiso  ? Al
   Al19       1.0     0.890002     0.538236     0.133341    Uiso  ? Al
   Al20       1.0     0.442605     0.428977     0.885081    Uiso  ? Al
   Al21       1.0     0.549729     0.539572     0.635667    Uiso  ? Al
   Al22       1.0     0.112844     0.757645     0.381664    Uiso  ? Al
   Al23       1.0     0.221798     0.869408     0.133467    Uiso  ? Al
   Al24       1.0     0.779536     0.759906     0.888529    Uiso  ? Al
   Al25       1.0     0.894910     0.866538     0.637450    Uiso  ? Al
   Al26       1.0     0.439401     0.755890     0.377057    Uiso  ? Al
   Al27       1.0     0.555174     0.872986     0.138526    Uiso  ? Al
   Al28       1.0     0.112521     0.758290     0.884919    Uiso  ? Al
   Al29       1.0     0.221885     0.866538     0.637450    Uiso  ? Al
   Al30       1.0     0.788042     0.755890     0.377057    Uiso  ? Al
   Al31       1.0     0.892127     0.869408     0.133467    Uiso  ? Al
   Al32       1.0     0.443891     0.759906     0.888529    Uiso  ? Al
   Hf1        1.0     0.888815     0.205700     0.614198    Uiso  ? Hf
   Hf2        1.0     0.554761     0.873813     0.618381    Uiso  ? Hf
   N1         1.0     0.226312     0.215911     0.319563    Uiso  ? N
   N2         1.0     0.110234     0.094406     0.079279    Uiso  ? N
   N3         1.0     0.888179     0.206976     0.828548    Uiso  ? N
   N4         1.0     0.767563     0.082094     0.585668    Uiso  ? N
   N5         1.0     0.541110     0.215911     0.319563    Uiso  ? N
   N6         1.0     0.445615     0.092104     0.077321    Uiso  ? N
   N7         1.0     0.222726     0.206665     0.829270    Uiso  ? N
   N8         1.0     0.133678     0.082093     0.585668    Uiso  ? N
   N9         1.0     0.881486     0.220362     0.336438    Uiso  ? N
   N10        1.0     0.778693     0.094406     0.079279    Uiso  ? N
   N11        1.0     0.553943     0.206665     0.829271    Uiso  ? N
   N12        1.0     0.433753     0.115827     0.571343    Uiso  ? N
   N13        1.0     0.222574     0.538185     0.328072    Uiso  ? N
   N14        1.0     0.110635     0.429782     0.074532    Uiso  ? N
   N15        1.0     0.888520     0.539553     0.827118    Uiso  ? N
   N16        1.0     0.765152     0.453030     0.572835    Uiso  ? N
   N17        1.0     0.554365     0.538907     0.323283    Uiso  ? N
   N18        1.0     0.442917     0.429782     0.074532    Uiso  ? N
   N19        1.0     0.222521     0.538292     0.823829    Uiso  ? N
   N20        1.0     0.110399     0.427497     0.576311    Uiso  ? N
   N21        1.0     0.890062     0.538907     0.323283    Uiso  ? N
   N22        1.0     0.777806     0.427722     0.077388    Uiso  ? N
   N23        1.0     0.555260     0.539553     0.827118    Uiso  ? N
   N24        1.0     0.445437     0.427497     0.576311    Uiso  ? N
   N25        1.0     0.228361     0.854985     0.319454    Uiso  ? N
   N26        1.0     0.112569     0.758196     0.073226    Uiso  ? N
   N27        1.0     0.889463     0.870353     0.829374    Uiso  ? N
   N28        1.0     0.797580     0.751301     0.570933    Uiso  ? N
   N29        1.0     0.555075     0.873182     0.338369    Uiso  ? N
   N30        1.0     0.446539     0.761195     0.078029    Uiso  ? N
   N31        1.0     0.223517     0.870354     0.829373    Uiso  ? N
   N32        1.0     0.111572     0.760190     0.577252    Uiso  ? N
   N33        1.0     0.899988     0.854985     0.319454    Uiso  ? N
   N34        1.0     0.775599     0.761195     0.078029    Uiso  ? N
   N35        1.0     0.555368     0.872597     0.828605    Uiso  ? N
   N36        1.0     0.434452     0.751301     0.570933    Uiso  ? N
