
#======================================================================
# CRYSTAL DATA
#----------------------------------------------------------------------
data_VESTA_phase_1

_chemical_name_common                  'Mg   Al   Hf   N                      '
_cell_length_a                         9.526120
_cell_length_b                         9.547284
_cell_length_c                         10.043809
_cell_angle_alpha                      90.031952
_cell_angle_beta                       90.000000
_cell_angle_gamma                      60.073303
_cell_volume                           791.671858
_space_group_name_H-M_alt              'P 1'
_space_group_IT_number                 1

loop_
_space_group_symop_operation_xyz
   'x, y, z'

loop_
   _atom_site_label
   _atom_site_occupancy
   _atom_site_fract_x
   _atom_site_fract_y
   _atom_site_fract_z
   _atom_site_adp_type
   _atom_site_U_iso_or_equiv
   _atom_site_type_symbol
   Mg1        1.0     0.120084     0.089494     0.399855    Uiso  ? Mg
   Mg2        1.0     0.773756     0.089494     0.399855    Uiso  ? Mg
   Al1        1.0     0.221602     0.208063     0.159177    Uiso  ? Al
   Al2        1.0     0.777182     0.093626     0.912322    Uiso  ? Al
   Al3        1.0     0.437934     0.107465     0.401242    Uiso  ? Al
   Al4        1.0     0.553668     0.208063     0.159177    Uiso  ? Al
   Al5        1.0     0.112525     0.093626     0.912322    Uiso  ? Al
   Al6        1.0     0.221469     0.211159     0.661953    Uiso  ? Al
   Al7        1.0     0.887965     0.207404     0.168424    Uiso  ? Al
   Al8        1.0     0.443098     0.097137     0.913769    Uiso  ? Al
   Al9        1.0     0.550705     0.211159     0.661953    Uiso  ? Al
   Al10       1.0     0.112272     0.427149     0.405977    Uiso  ? Al
   Al11       1.0     0.222091     0.539151     0.161137    Uiso  ? Al
   Al12       1.0     0.777011     0.429311     0.912475    Uiso  ? Al
   Al13       1.0     0.894046     0.539609     0.660123    Uiso  ? Al
   Al14       1.0     0.443912     0.427149     0.405977    Uiso  ? Al
   Al15       1.0     0.555086     0.538251     0.158479    Uiso  ? Al
   Al16       1.0     0.111725     0.428937     0.909957    Uiso  ? Al
   Al17       1.0     0.222472     0.538390     0.657068    Uiso  ? Al
   Al18       1.0     0.773602     0.436130     0.402072    Uiso  ? Al
   Al19       1.0     0.889997     0.538251     0.158479    Uiso  ? Al
   Al20       1.0     0.442671     0.428937     0.909957    Uiso  ? Al
   Al21       1.0     0.549678     0.539609     0.660123    Uiso  ? Al
   Al22       1.0     0.112782     0.757770     0.406273    Uiso  ? Al
   Al23       1.0     0.221795     0.869530     0.158596    Uiso  ? Al
   Al24       1.0     0.779891     0.759672     0.913566    Uiso  ? Al
   Al25       1.0     0.894971     0.866513     0.662187    Uiso  ? Al
   Al26       1.0     0.439561     0.756289     0.401804    Uiso  ? Al
   Al27       1.0     0.555201     0.872932     0.162902    Uiso  ? Al
   Al28       1.0     0.112494     0.758345     0.909921    Uiso  ? Al
   Al29       1.0     0.221849     0.866513     0.662187    Uiso  ? Al
   Al30       1.0     0.787483     0.756289     0.401804    Uiso  ? Al
   Al31       1.0     0.892008     0.869530     0.158596    Uiso  ? Al
   Al32       1.0     0.443770     0.759672     0.913566    Uiso  ? Al
   Hf1        1.0     0.888685     0.205964     0.642104    Uiso  ? Hf
   Hf2        1.0     0.554745     0.873843     0.644740    Uiso  ? Hf
   N1         1.0     0.226333     0.215675     0.344103    Uiso  ? N
   N2         1.0     0.110631     0.094205     0.103432    Uiso  ? N
   N3         1.0     0.888218     0.206898     0.854588    Uiso  ? N
   N4         1.0     0.767788     0.082453     0.610423    Uiso  ? N
   N5         1.0     0.541325     0.215675     0.344103    Uiso  ? N
   N6         1.0     0.445499     0.092335     0.101759    Uiso  ? N
   N7         1.0     0.222807     0.206644     0.853491    Uiso  ? N
   N8         1.0     0.133092     0.082453     0.610423    Uiso  ? N
   N9         1.0     0.881448     0.220437     0.358557    Uiso  ? N
   N10        1.0     0.778497     0.094205     0.103432    Uiso  ? N
   N11        1.0     0.553882     0.206644     0.853491    Uiso  ? N
   N12        1.0     0.433962     0.115410     0.595609    Uiso  ? N
   N13        1.0     0.222556     0.538221     0.352211    Uiso  ? N
   N14        1.0     0.110603     0.429674     0.098916    Uiso  ? N
   N15        1.0     0.888557     0.539496     0.851155    Uiso  ? N
   N16        1.0     0.765439     0.452455     0.597039    Uiso  ? N
   N17        1.0     0.554350     0.539015     0.347861    Uiso  ? N
   N18        1.0     0.443057     0.429674     0.098916    Uiso  ? N
   N19        1.0     0.222509     0.538316     0.848293    Uiso  ? N
   N20        1.0     0.110500     0.427552     0.600575    Uiso  ? N
   N21        1.0     0.889968     0.539015     0.347861    Uiso  ? N
   N22        1.0     0.777573     0.428188     0.101623    Uiso  ? N
   N23        1.0     0.555281     0.539496     0.851155    Uiso  ? N
   N24        1.0     0.445281     0.427552     0.600575    Uiso  ? N
   N25        1.0     0.228301     0.855313     0.343994    Uiso  ? N
   N26        1.0     0.112489     0.758355     0.097717    Uiso  ? N
   N27        1.0     0.889520     0.870252     0.853588    Uiso  ? N
   N28        1.0     0.797134     0.751613     0.595235    Uiso  ? N
   N29        1.0     0.555081     0.873172     0.361774    Uiso  ? N
   N30        1.0     0.446392     0.761059     0.102376    Uiso  ? N
   N31        1.0     0.223562     0.870252     0.853588    Uiso  ? N
   N32        1.0     0.111588     0.760158     0.601479    Uiso  ? N
   N33        1.0     0.899719     0.855313     0.343994    Uiso  ? N
   N34        1.0     0.775882     0.761059     0.102376    Uiso  ? N
   N35        1.0     0.555387     0.872559     0.853982    Uiso  ? N
   N36        1.0     0.434586     0.751613     0.595235    Uiso  ? N
