
#======================================================================
# CRYSTAL DATA
#----------------------------------------------------------------------
data_VESTA_phase_1

_chemical_name_common                  'Mg   Al   Hf   N                      '
_cell_length_a                         9.951945
_cell_length_b                         9.975043
_cell_length_c                         8.777560
_cell_angle_alpha                      90.009857
_cell_angle_beta                       90.000000
_cell_angle_gamma                      60.076576
_cell_volume                           755.199703
_space_group_name_H-M_alt              'P 1'
_space_group_IT_number                 1

loop_
_space_group_symop_operation_xyz
   'x, y, z'

loop_
   _atom_site_label
   _atom_site_occupancy
   _atom_site_fract_x
   _atom_site_fract_y
   _atom_site_fract_z
   _atom_site_adp_type
   _atom_site_U_iso_or_equiv
   _atom_site_type_symbol
   Mg1        1.0     0.119226     0.089692     0.351453    Uiso  ? Mg
   Mg2        1.0     0.774415     0.089692     0.351453    Uiso  ? Mg
   Al1        1.0     0.219382     0.209095     0.118819    Uiso  ? Al
   Al2        1.0     0.775734     0.092371     0.865053    Uiso  ? Al
   Al3        1.0     0.438830     0.105673     0.353972    Uiso  ? Al
   Al4        1.0     0.554856     0.209095     0.118819    Uiso  ? Al
   Al5        1.0     0.115228     0.092371     0.865053    Uiso  ? Al
   Al6        1.0     0.221506     0.210178     0.612917    Uiso  ? Al
   Al7        1.0     0.888749     0.205836     0.117526    Uiso  ? Al
   Al8        1.0     0.441455     0.100424     0.873822    Uiso  ? Al
   Al9        1.0     0.551649     0.210178     0.612917    Uiso  ? Al
   Al10       1.0     0.111225     0.429359     0.366833    Uiso  ? Al
   Al11       1.0     0.222087     0.539159     0.118834    Uiso  ? Al
   Al12       1.0     0.776343     0.430647     0.872304    Uiso  ? Al
   Al13       1.0     0.892263     0.539896     0.620604    Uiso  ? Al
   Al14       1.0     0.442749     0.429359     0.366833    Uiso  ? Al
   Al15       1.0     0.554235     0.537095     0.114142    Uiso  ? Al
   Al16       1.0     0.113147     0.427676     0.867479    Uiso  ? Al
   Al17       1.0     0.222663     0.538008     0.616882    Uiso  ? Al
   Al18       1.0     0.773510     0.436313     0.354309    Uiso  ? Al
   Al19       1.0     0.892003     0.537095     0.114142    Uiso  ? Al
   Al20       1.0     0.442510     0.427676     0.867479    Uiso  ? Al
   Al21       1.0     0.551174     0.539896     0.620604    Uiso  ? Al
   Al22       1.0     0.113934     0.755466     0.369228    Uiso  ? Al
   Al23       1.0     0.219280     0.870367     0.117967    Uiso  ? Al
   Al24       1.0     0.781677     0.760070     0.875481    Uiso  ? Al
   Al25       1.0     0.893485     0.867158     0.614574    Uiso  ? Al
   Al26       1.0     0.441466     0.754871     0.353211    Uiso  ? Al
   Al27       1.0     0.554968     0.873396     0.114604    Uiso  ? Al
   Al28       1.0     0.112471     0.758391     0.865203    Uiso  ? Al
   Al29       1.0     0.222691     0.867158     0.614574    Uiso  ? Al
   Al30       1.0     0.786996     0.754871     0.353211    Uiso  ? Al
   Al31       1.0     0.893686     0.870367     0.117967    Uiso  ? Al
   Al32       1.0     0.441586     0.760070     0.875481    Uiso  ? Al
   Hf1        1.0     0.888176     0.206981     0.597453    Uiso  ? Hf
   Hf2        1.0     0.555260     0.872814     0.603001    Uiso  ? Hf
   N1         1.0     0.225131     0.215800     0.341235    Uiso  ? N
   N2         1.0     0.112315     0.093049     0.091079    Uiso  ? N
   N3         1.0     0.887280     0.208774     0.850305    Uiso  ? N
   N4         1.0     0.770147     0.084760     0.605429    Uiso  ? N
   N5         1.0     0.542402     0.215800     0.341235    Uiso  ? N
   N6         1.0     0.444440     0.094453     0.096766    Uiso  ? N
   N7         1.0     0.223196     0.207486     0.844096    Uiso  ? N
   N8         1.0     0.128426     0.084760     0.605429    Uiso  ? N
   N9         1.0     0.881804     0.219725     0.346983    Uiso  ? N
   N10        1.0     0.777969     0.093049     0.091079    Uiso  ? N
   N11        1.0     0.552651     0.207486     0.844096    Uiso  ? N
   N12        1.0     0.436531     0.110270     0.590196    Uiso  ? N
   N13        1.0     0.222639     0.538055     0.344341    Uiso  ? N
   N14        1.0     0.111628     0.429403     0.089920    Uiso  ? N
   N15        1.0     0.888774     0.540215     0.846535    Uiso  ? N
   N16        1.0     0.766994     0.449345     0.592580    Uiso  ? N
   N17        1.0     0.554686     0.537692     0.337512    Uiso  ? N
   N18        1.0     0.442302     0.429403     0.089920    Uiso  ? N
   N19        1.0     0.222884     0.537565     0.839471    Uiso  ? N
   N20        1.0     0.109101     0.429135     0.593841    Uiso  ? N
   N21        1.0     0.890956     0.537692     0.337512    Uiso  ? N
   N22        1.0     0.776732     0.429870     0.094493    Uiso  ? N
   N23        1.0     0.554345     0.540215     0.846535    Uiso  ? N
   N24        1.0     0.445098     0.429135     0.593841    Uiso  ? N
   N25        1.0     0.227164     0.856323     0.340535    Uiso  ? N
   N26        1.0     0.112859     0.757614     0.087238    Uiso  ? N
   N27        1.0     0.889953     0.869073     0.844212    Uiso  ? N
   N28        1.0     0.793521     0.752195     0.588555    Uiso  ? N
   N29        1.0     0.555294     0.872745     0.344799    Uiso  ? N
   N30        1.0     0.444967     0.761101     0.097398    Uiso  ? N
   N31        1.0     0.224307     0.869073     0.844212    Uiso  ? N
   N32        1.0     0.112107     0.759120     0.596262    Uiso  ? N
   N33        1.0     0.899847     0.856323     0.340535    Uiso  ? N
   N34        1.0     0.777265     0.761101     0.097398    Uiso  ? N
   N35        1.0     0.555295     0.872743     0.851891    Uiso  ? N
   N36        1.0     0.437617     0.752195     0.588555    Uiso  ? N
