
#======================================================================
# CRYSTAL DATA
#----------------------------------------------------------------------
data_VESTA_phase_1

_chemical_name_common                  'Mg   Al   Hf   N                      '
_cell_length_a                         9.737843
_cell_length_b                         9.761834
_cell_length_c                         9.436893
_cell_angle_alpha                      90.014580
_cell_angle_beta                       90.000000
_cell_angle_gamma                      60.081268
_cell_volume                           777.515232
_space_group_name_H-M_alt              'P 1'
_space_group_IT_number                 1

loop_
_space_group_symop_operation_xyz
   'x, y, z'

loop_
   _atom_site_label
   _atom_site_occupancy
   _atom_site_fract_x
   _atom_site_fract_y
   _atom_site_fract_z
   _atom_site_adp_type
   _atom_site_U_iso_or_equiv
   _atom_site_type_symbol
   Mg1        1.0     0.122513     0.088080     0.362466    Uiso  ? Mg
   Mg2        1.0     0.772740     0.088080     0.362466    Uiso  ? Mg
   Al1        1.0     0.220898     0.209239     0.128292    Uiso  ? Al
   Al2        1.0     0.777703     0.094373     0.878293    Uiso  ? Al
   Al3        1.0     0.436749     0.109836     0.370171    Uiso  ? Al
   Al4        1.0     0.553196     0.209239     0.128292    Uiso  ? Al
   Al5        1.0     0.111257     0.094373     0.878293    Uiso  ? Al
   Al6        1.0     0.221258     0.210233     0.629843    Uiso  ? Al
   Al7        1.0     0.887905     0.207523     0.138295    Uiso  ? Al
   Al8        1.0     0.443375     0.096584     0.882930    Uiso  ? Al
   Al9        1.0     0.551842     0.210233     0.629843    Uiso  ? Al
   Al10       1.0     0.111692     0.428227     0.377531    Uiso  ? Al
   Al11       1.0     0.222017     0.539299     0.131132    Uiso  ? Al
   Al12       1.0     0.777802     0.427729     0.881402    Uiso  ? Al
   Al13       1.0     0.892948     0.539828     0.631803    Uiso  ? Al
   Al14       1.0     0.443415     0.428227     0.377531    Uiso  ? Al
   Al15       1.0     0.554711     0.537572     0.125808    Uiso  ? Al
   Al16       1.0     0.112443     0.428631     0.878457    Uiso  ? Al
   Al17       1.0     0.222693     0.537947     0.626357    Uiso  ? Al
   Al18       1.0     0.771994     0.439345     0.370616    Uiso  ? Al
   Al19       1.0     0.891050     0.537572     0.125808    Uiso  ? Al
   Al20       1.0     0.442259     0.428631     0.878457    Uiso  ? Al
   Al21       1.0     0.550557     0.539828     0.631803    Uiso  ? Al
   Al22       1.0     0.113401     0.756531     0.379115    Uiso  ? Al
   Al23       1.0     0.220790     0.868881     0.127418    Uiso  ? Al
   Al24       1.0     0.778593     0.760934     0.883812    Uiso  ? Al
   Al25       1.0     0.893717     0.867227     0.630468    Uiso  ? Al
   Al26       1.0     0.439212     0.753985     0.369161    Uiso  ? Al
   Al27       1.0     0.555009     0.873315     0.133631    Uiso  ? Al
   Al28       1.0     0.112724     0.757885     0.876952    Uiso  ? Al
   Al29       1.0     0.222389     0.867227     0.630468    Uiso  ? Al
   Al30       1.0     0.790136     0.753985     0.369161    Uiso  ? Al
   Al31       1.0     0.893663     0.868881     0.127418    Uiso  ? Al
   Al32       1.0     0.443806     0.760934     0.883812    Uiso  ? Al
   Hf1        1.0     0.888945     0.205444     0.598080    Uiso  ? Hf
   Hf2        1.0     0.555080     0.873173     0.605969    Uiso  ? Hf
   N1         1.0     0.225470     0.217169     0.325754    Uiso  ? N
   N2         1.0     0.110089     0.094388     0.084645    Uiso  ? N
   N3         1.0     0.887699     0.207936     0.831254    Uiso  ? N
   N4         1.0     0.768333     0.082515     0.590021    Uiso  ? N
   N5         1.0     0.540693     0.217169     0.325754    Uiso  ? N
   N6         1.0     0.445648     0.092038     0.083633    Uiso  ? N
   N7         1.0     0.223031     0.206685     0.833880    Uiso  ? N
   N8         1.0     0.132486     0.082515     0.590021    Uiso  ? N
   N9         1.0     0.881276     0.220781     0.345703    Uiso  ? N
   N10        1.0     0.778856     0.094388     0.084645    Uiso  ? N
   N11        1.0     0.553617     0.206685     0.833880    Uiso  ? N
   N12        1.0     0.434227     0.114880     0.576589    Uiso  ? N
   N13        1.0     0.222562     0.538210     0.334088    Uiso  ? N
   N14        1.0     0.111225     0.429982     0.078713    Uiso  ? N
   N15        1.0     0.888204     0.540158     0.834143    Uiso  ? N
   N16        1.0     0.765115     0.453102     0.578293    Uiso  ? N
   N17        1.0     0.554333     0.537838     0.326620    Uiso  ? N
   N18        1.0     0.442127     0.429982     0.078713    Uiso  ? N
   N19        1.0     0.222782     0.537770     0.827864    Uiso  ? N
   N20        1.0     0.109493     0.428035     0.582231    Uiso  ? N
   N21        1.0     0.891162     0.537838     0.326620    Uiso  ? N
   N22        1.0     0.777924     0.427484     0.083130    Uiso  ? N
   N23        1.0     0.554971     0.540158     0.834143    Uiso  ? N
   N24        1.0     0.445805     0.428035     0.582231    Uiso  ? N
   N25        1.0     0.227514     0.854425     0.325349    Uiso  ? N
   N26        1.0     0.113028     0.757277     0.076390    Uiso  ? N
   N27        1.0     0.889121     0.870113     0.834208    Uiso  ? N
   N28        1.0     0.797480     0.750703     0.575423    Uiso  ? N
   N29        1.0     0.555193     0.872947     0.344221    Uiso  ? N
   N30        1.0     0.446478     0.761676     0.084881    Uiso  ? N
   N31        1.0     0.224100     0.870113     0.834208    Uiso  ? N
   N32        1.0     0.111658     0.760017     0.584081    Uiso  ? N
   N33        1.0     0.901393     0.854425     0.325349    Uiso  ? N
   N34        1.0     0.775180     0.761676     0.084881    Uiso  ? N
   N35        1.0     0.555337     0.872659     0.831963    Uiso  ? N
   N36        1.0     0.435150     0.750703     0.575423    Uiso  ? N
