
#======================================================================
# CRYSTAL DATA
#----------------------------------------------------------------------
data_VESTA_phase_1

_chemical_name_common                  'Mg   Al   Hf   N                      '
_cell_length_a                         10.023282
_cell_length_b                         10.045715
_cell_length_c                         8.561473
_cell_angle_alpha                      90.007896
_cell_angle_beta                       90.000000
_cell_angle_gamma                      60.073853
_cell_volume                           747.123929
_space_group_name_H-M_alt              'P 1'
_space_group_IT_number                 1

loop_
_space_group_symop_operation_xyz
   'x, y, z'

loop_
   _atom_site_label
   _atom_site_occupancy
   _atom_site_fract_x
   _atom_site_fract_y
   _atom_site_fract_z
   _atom_site_adp_type
   _atom_site_U_iso_or_equiv
   _atom_site_type_symbol
   Mg1        1.0     0.118434     0.090199     0.348352    Uiso  ? Mg
   Mg2        1.0     0.774700     0.090199     0.348353    Uiso  ? Mg
   Al1        1.0     0.219238     0.208451     0.111389    Uiso  ? Al
   Al2        1.0     0.775102     0.091589     0.861598    Uiso  ? Al
   Al3        1.0     0.439504     0.104326     0.346091    Uiso  ? Al
   Al4        1.0     0.555645     0.208451     0.111389    Uiso  ? Al
   Al5        1.0     0.116642     0.091589     0.861598    Uiso  ? Al
   Al6        1.0     0.221424     0.210304     0.603516    Uiso  ? Al
   Al7        1.0     0.888957     0.205419     0.110291    Uiso  ? Al
   Al8        1.0     0.440660     0.102014     0.866822    Uiso  ? Al
   Al9        1.0     0.551605     0.210304     0.603516    Uiso  ? Al
   Al10       1.0     0.111672     0.429428     0.358520    Uiso  ? Al
   Al11       1.0     0.222196     0.538941     0.110258    Uiso  ? Al
   Al12       1.0     0.775575     0.432183     0.865947    Uiso  ? Al
   Al13       1.0     0.892502     0.539494     0.611970    Uiso  ? Al
   Al14       1.0     0.442233     0.429428     0.358520    Uiso  ? Al
   Al15       1.0     0.554187     0.537498     0.107494    Uiso  ? Al
   Al16       1.0     0.112745     0.427454     0.860977    Uiso  ? Al
   Al17       1.0     0.222541     0.538251     0.610871    Uiso  ? Al
   Al18       1.0     0.774122     0.435089     0.346837    Uiso  ? Al
   Al19       1.0     0.891649     0.537498     0.107494    Uiso  ? Al
   Al20       1.0     0.443134     0.427454     0.860977    Uiso  ? Al
   Al21       1.0     0.551337     0.539494     0.611970    Uiso  ? Al
   Al22       1.0     0.114168     0.754997     0.360076    Uiso  ? Al
   Al23       1.0     0.219384     0.871109     0.111262    Uiso  ? Al
   Al24       1.0     0.783259     0.759264     0.868615    Uiso  ? Al
   Al25       1.0     0.893863     0.867147     0.605479    Uiso  ? Al
   Al26       1.0     0.442103     0.755528     0.346841    Uiso  ? Al
   Al27       1.0     0.555044     0.873245     0.106743    Uiso  ? Al
   Al28       1.0     0.112139     0.759056     0.859484    Uiso  ? Al
   Al29       1.0     0.222323     0.867147     0.605479    Uiso  ? Al
   Al30       1.0     0.785703     0.755528     0.346841    Uiso  ? Al
   Al31       1.0     0.892841     0.871109     0.111262    Uiso  ? Al
   Al32       1.0     0.440811     0.759264     0.868615    Uiso  ? Al
   Hf1        1.0     0.888124     0.207085     0.598711    Uiso  ? Hf
   Hf2        1.0     0.555135     0.873063     0.603365    Uiso  ? Hf
   N1         1.0     0.225879     0.214720     0.348929    Uiso  ? N
   N2         1.0     0.112645     0.092762     0.093751    Uiso  ? N
   N3         1.0     0.887246     0.208841     0.857160    Uiso  ? N
   N4         1.0     0.770357     0.085260     0.610726    Uiso  ? N
   N5         1.0     0.542734     0.214720     0.348929    Uiso  ? N
   N6         1.0     0.444231     0.094872     0.101332    Uiso  ? N
   N7         1.0     0.222502     0.208055     0.851974    Uiso  ? N
   N8         1.0     0.127717     0.085260     0.610726    Uiso  ? N
   N9         1.0     0.881886     0.219561     0.347488    Uiso  ? N
   N10        1.0     0.777926     0.092762     0.093751    Uiso  ? N
   N11        1.0     0.552776     0.208055     0.851974    Uiso  ? N
   N12        1.0     0.437031     0.109271     0.601050    Uiso  ? N
   N13        1.0     0.222721     0.537892     0.350255    Uiso  ? N
   N14        1.0     0.111229     0.429388     0.097768    Uiso  ? N
   N15        1.0     0.889565     0.539788     0.852778    Uiso  ? N
   N16        1.0     0.767887     0.447560     0.602430    Uiso  ? N
   N17        1.0     0.555066     0.538222     0.345634    Uiso  ? N
   N18        1.0     0.442716     0.429388     0.097768    Uiso  ? N
   N19        1.0     0.222841     0.537652     0.847371    Uiso  ? N
   N20        1.0     0.109493     0.429071     0.600462    Uiso  ? N
   N21        1.0     0.890045     0.538222     0.345634    Uiso  ? N
   N22        1.0     0.776188     0.430957     0.099062    Uiso  ? N
   N23        1.0     0.553980     0.539788     0.852778    Uiso  ? N
   N24        1.0     0.444769     0.429071     0.600462    Uiso  ? N
   N25        1.0     0.227835     0.856832     0.348406    Uiso  ? N
   N26        1.0     0.112699     0.757936     0.095555    Uiso  ? N
   N27        1.0     0.890631     0.869108     0.851274    Uiso  ? N
   N28        1.0     0.792150     0.753044     0.598636    Uiso  ? N
   N29        1.0     0.555283     0.872768     0.345555    Uiso  ? N
   N30        1.0     0.444746     0.760722     0.101560    Uiso  ? N
   N31        1.0     0.223594     0.869108     0.851274    Uiso  ? N
   N32        1.0     0.112179     0.758975     0.602503    Uiso  ? N
   N33        1.0     0.898666     0.856832     0.348406    Uiso  ? N
   N34        1.0     0.777865     0.760722     0.101560    Uiso  ? N
   N35        1.0     0.555327     0.872680     0.859130    Uiso  ? N
   N36        1.0     0.438140     0.753044     0.598636    Uiso  ? N
