
#======================================================================
# CRYSTAL DATA
#----------------------------------------------------------------------
data_VESTA_phase_1

_chemical_name_common                  'Mg   Al   Hf   N                      '
_cell_length_a                         9.586030
_cell_length_b                         9.609319
_cell_length_c                         9.871758
_cell_angle_alpha                      90.020302
_cell_angle_beta                       90.000000
_cell_angle_gamma                      60.080139
_cell_volume                           788.145861
_space_group_name_H-M_alt              'P 1'
_space_group_IT_number                 1

loop_
_space_group_symop_operation_xyz
   'x, y, z'

loop_
   _atom_site_label
   _atom_site_occupancy
   _atom_site_fract_x
   _atom_site_fract_y
   _atom_site_fract_z
   _atom_site_adp_type
   _atom_site_U_iso_or_equiv
   _atom_site_type_symbol
   Mg1        1.0     0.122913     0.087950     0.370746    Uiso  ? Mg
   Mg2        1.0     0.772471     0.087950     0.370746    Uiso  ? Mg
   Al1        1.0     0.221584     0.208525     0.131914    Uiso  ? Al
   Al2        1.0     0.778016     0.094583     0.884555    Uiso  ? Al
   Al3        1.0     0.436927     0.109480     0.375339    Uiso  ? Al
   Al4        1.0     0.553225     0.208525     0.131914    Uiso  ? Al
   Al5        1.0     0.110734     0.094583     0.884555    Uiso  ? Al
   Al6        1.0     0.221205     0.210802     0.635513    Uiso  ? Al
   Al7        1.0     0.887821     0.207692     0.144442    Uiso  ? Al
   Al8        1.0     0.443548     0.096238     0.886370    Uiso  ? Al
   Al9        1.0     0.551327     0.210802     0.635513    Uiso  ? Al
   Al10       1.0     0.112099     0.427426     0.380228    Uiso  ? Al
   Al11       1.0     0.222047     0.539239     0.135023    Uiso  ? Al
   Al12       1.0     0.777872     0.427589     0.885005    Uiso  ? Al
   Al13       1.0     0.893857     0.539557     0.634848    Uiso  ? Al
   Al14       1.0     0.443808     0.427426     0.380228    Uiso  ? Al
   Al15       1.0     0.555022     0.538170     0.130969    Uiso  ? Al
   Al16       1.0     0.111872     0.428983     0.883214    Uiso  ? Al
   Al17       1.0     0.222587     0.538159     0.630404    Uiso  ? Al
   Al18       1.0     0.772280     0.438773     0.376090    Uiso  ? Al
   Al19       1.0     0.890141     0.538170     0.130969    Uiso  ? Al
   Al20       1.0     0.442479     0.428983     0.883214    Uiso  ? Al
   Al21       1.0     0.549919     0.539557     0.634848    Uiso  ? Al
   Al22       1.0     0.113022     0.757290     0.380881    Uiso  ? Al
   Al23       1.0     0.221703     0.869065     0.131295    Uiso  ? Al
   Al24       1.0     0.778745     0.760463     0.886598    Uiso  ? Al
   Al25       1.0     0.894597     0.866824     0.635801    Uiso  ? Al
   Al26       1.0     0.438975     0.754960     0.375405    Uiso  ? Al
   Al27       1.0     0.555109     0.873115     0.137963    Uiso  ? Al
   Al28       1.0     0.112585     0.758164     0.882664    Uiso  ? Al
   Al29       1.0     0.221912     0.866824     0.635801    Uiso  ? Al
   Al30       1.0     0.789398     0.754960     0.375405    Uiso  ? Al
   Al31       1.0     0.892565     0.869065     0.131295    Uiso  ? Al
   Al32       1.0     0.444125     0.760463     0.886598    Uiso  ? Al
   Hf1        1.0     0.889029     0.205275     0.605756    Uiso  ? Hf
   Hf2        1.0     0.554827     0.873679     0.612969    Uiso  ? Hf
   N1         1.0     0.226160     0.216571     0.319817    Uiso  ? N
   N2         1.0     0.109601     0.094730     0.080234    Uiso  ? N
   N3         1.0     0.888063     0.207206     0.825984    Uiso  ? N
   N4         1.0     0.767346     0.081649     0.585047    Uiso  ? N
   N5         1.0     0.540603     0.216571     0.319817    Uiso  ? N
   N6         1.0     0.445842     0.091649     0.077738    Uiso  ? N
   N7         1.0     0.222627     0.206645     0.829848    Uiso  ? N
   N8         1.0     0.134338     0.081649     0.585047    Uiso  ? N
   N9         1.0     0.881411     0.220511     0.341139    Uiso  ? N
   N10        1.0     0.779002     0.094730     0.080234    Uiso  ? N
   N11        1.0     0.554061     0.206645     0.829848    Uiso  ? N
   N12        1.0     0.433440     0.116454     0.572012    Uiso  ? N
   N13        1.0     0.222579     0.538175     0.328950    Uiso  ? N
   N14        1.0     0.110754     0.429996     0.074769    Uiso  ? N
   N15        1.0     0.888411     0.539726     0.828261    Uiso  ? N
   N16        1.0     0.764668     0.453998     0.573497    Uiso  ? N
   N17        1.0     0.554325     0.538620     0.323118    Uiso  ? N
   N18        1.0     0.442583     0.429996     0.074769    Uiso  ? N
   N19        1.0     0.222584     0.538165     0.823930    Uiso  ? N
   N20        1.0     0.110118     0.427492     0.576976    Uiso  ? N
   N21        1.0     0.890388     0.538620     0.323118    Uiso  ? N
   N22        1.0     0.778143     0.427048     0.078053    Uiso  ? N
   N23        1.0     0.555197     0.539726     0.828261    Uiso  ? N
   N24        1.0     0.445722     0.427492     0.576976    Uiso  ? N
   N25        1.0     0.228290     0.854355     0.319663    Uiso  ? N
   N26        1.0     0.112763     0.757807     0.073143    Uiso  ? N
   N27        1.0     0.889282     0.870544     0.829984    Uiso  ? N
   N28        1.0     0.798380     0.750719     0.571382    Uiso  ? N
   N29        1.0     0.555081     0.873171     0.340769    Uiso  ? N
   N30        1.0     0.446787     0.761518     0.078667    Uiso  ? N
   N31        1.0     0.223507     0.870544     0.829984    Uiso  ? N
   N32        1.0     0.111543     0.760248     0.578113    Uiso  ? N
   N33        1.0     0.900689     0.854355     0.319663    Uiso  ? N
   N34        1.0     0.775028     0.761518     0.078667    Uiso  ? N
   N35        1.0     0.555348     0.872637     0.826862    Uiso  ? N
   N36        1.0     0.434235     0.750719     0.571382    Uiso  ? N
