
#======================================================================
# CRYSTAL DATA
#----------------------------------------------------------------------
data_VESTA_phase_1

_chemical_name_common                  'Mg   Al   Hf   N                      '
_cell_length_a                         9.779987
_cell_length_b                         9.798666
_cell_length_c                         9.306996
_cell_angle_alpha                      90.007111
_cell_angle_beta                       90.000000
_cell_angle_gamma                      60.063042
_cell_volume                           772.895809
_space_group_name_H-M_alt              'P 1'
_space_group_IT_number                 1

loop_
_space_group_symop_operation_xyz
   'x, y, z'

loop_
   _atom_site_label
   _atom_site_occupancy
   _atom_site_fract_x
   _atom_site_fract_y
   _atom_site_fract_z
   _atom_site_adp_type
   _atom_site_U_iso_or_equiv
   _atom_site_type_symbol
   Mg1        1.0     0.114677     0.092053     0.332312    Uiso  ? Mg
   Mg2        1.0     0.776603     0.092053     0.332312    Uiso  ? Mg
   Al1        1.0     0.219045     0.209036     0.086166    Uiso  ? Al
   Al2        1.0     0.774130     0.090999     0.850001    Uiso  ? Al
   Al3        1.0     0.442017     0.099300     0.323813    Uiso  ? Al
   Al4        1.0     0.555252     0.209036     0.086166    Uiso  ? Al
   Al5        1.0     0.118204     0.090999     0.850002    Uiso  ? Al
   Al6        1.0     0.223084     0.210233     0.575371    Uiso  ? Al
   Al7        1.0     0.888693     0.205947     0.084144    Uiso  ? Al
   Al8        1.0     0.438389     0.106556     0.843239    Uiso  ? Al
   Al9        1.0     0.550016     0.210233     0.575371    Uiso  ? Al
   Al10       1.0     0.113422     0.429329     0.331653    Uiso  ? Al
   Al11       1.0     0.222514     0.538305     0.077811    Uiso  ? Al
   Al12       1.0     0.773583     0.436168     0.841873    Uiso  ? Al
   Al13       1.0     0.892322     0.539596     0.578256    Uiso  ? Al
   Al14       1.0     0.440582     0.429329     0.331654    Uiso  ? Al
   Al15       1.0     0.553706     0.537723     0.083273    Uiso  ? Al
   Al16       1.0     0.111233     0.427184     0.830941    Uiso  ? Al
   Al17       1.0     0.222073     0.539187     0.583630    Uiso  ? Al
   Al18       1.0     0.776007     0.431320     0.326014    Uiso  ? Al
   Al19       1.0     0.891904     0.537723     0.083273    Uiso  ? Al
   Al20       1.0     0.444916     0.427184     0.830941    Uiso  ? Al
   Al21       1.0     0.551415     0.539596     0.578256    Uiso  ? Al
   Al22       1.0     0.114955     0.753424     0.329533    Uiso  ? Al
   Al23       1.0     0.219914     0.871445     0.085548    Uiso  ? Al
   Al24       1.0     0.788450     0.756075     0.841630    Uiso  ? Al
   Al25       1.0     0.894901     0.865266     0.576402    Uiso  ? Al
   Al26       1.0     0.444338     0.758583     0.324770    Uiso  ? Al
   Al27       1.0     0.555398     0.872538     0.076654    Uiso  ? Al
   Al28       1.0     0.111242     0.760849     0.832908    Uiso  ? Al
   Al29       1.0     0.223166     0.865266     0.576402    Uiso  ? Al
   Al30       1.0     0.780412     0.758583     0.324770    Uiso  ? Al
   Al31       1.0     0.891975     0.871445     0.085548    Uiso  ? Al
   Al32       1.0     0.438809     0.756075     0.841630    Uiso  ? Al
   Hf1        1.0     0.888398     0.206537     0.597935    Uiso  ? Hf
   Hf2        1.0     0.554732     0.873869     0.601957    Uiso  ? Hf
   N1         1.0     0.229000     0.212772     0.372056    Uiso  ? N
   N2         1.0     0.110012     0.094595     0.105736    Uiso  ? N
   N3         1.0     0.887297     0.208739     0.862573    Uiso  ? N
   N4         1.0     0.767473     0.082375     0.630007    Uiso  ? N
   N5         1.0     0.541562     0.212772     0.372056    Uiso  ? N
   N6         1.0     0.445382     0.092569     0.117542    Uiso  ? N
   N7         1.0     0.220405     0.210859     0.880363    Uiso  ? N
   N8         1.0     0.133486     0.082375     0.630007    Uiso  ? N
   N9         1.0     0.881003     0.221327     0.376019    Uiso  ? N
   N10        1.0     0.778727     0.094595     0.105736    Uiso  ? N
   N11        1.0     0.552069     0.210859     0.880363    Uiso  ? N
   N12        1.0     0.434431     0.114470     0.634853    Uiso  ? N
   N13        1.0     0.222646     0.538041     0.379172    Uiso  ? N
   N14        1.0     0.111279     0.430523     0.126450    Uiso  ? N
   N15        1.0     0.892252     0.537586     0.879759    Uiso  ? N
   N16        1.0     0.766116     0.451102     0.633423    Uiso  ? N
   N17        1.0     0.555656     0.540167     0.372103    Uiso  ? N
   N18        1.0     0.441532     0.430523     0.126450    Uiso  ? N
   N19        1.0     0.222730     0.537873     0.871956    Uiso  ? N
   N20        1.0     0.109439     0.427718     0.625294    Uiso  ? N
   N21        1.0     0.887511     0.540167     0.372103    Uiso  ? N
   N22        1.0     0.777007     0.429319     0.118785    Uiso  ? N
   N23        1.0     0.553495     0.537586     0.879759    Uiso  ? N
   N24        1.0     0.446176     0.427718     0.625294    Uiso  ? N
   N25        1.0     0.230883     0.854933     0.372568    Uiso  ? N
   N26        1.0     0.113269     0.756794     0.124185    Uiso  ? N
   N27        1.0     0.893007     0.868772     0.880052    Uiso  ? N
   N28        1.0     0.796450     0.751196     0.633327    Uiso  ? N
   N29        1.0     0.555228     0.872878     0.371883    Uiso  ? N
   N30        1.0     0.446118     0.761415     0.118855    Uiso  ? N
   N31        1.0     0.221555     0.868772     0.880052    Uiso  ? N
   N32        1.0     0.111151     0.761032     0.627938    Uiso  ? N
   N33        1.0     0.897517     0.854933     0.372568    Uiso  ? N
   N34        1.0     0.775801     0.761415     0.118855    Uiso  ? N
   N35        1.0     0.555418     0.872496     0.864257    Uiso  ? N
   N36        1.0     0.435687     0.751196     0.633327    Uiso  ? N
