
#======================================================================
# CRYSTAL DATA
#----------------------------------------------------------------------
data_VESTA_phase_1

_chemical_name_common                  'Mg   Al   Hf   N                      '
_cell_length_a                         9.582872
_cell_length_b                         9.597728
_cell_length_c                         9.889127
_cell_angle_alpha                      90.006607
_cell_angle_beta                       90.000000
_cell_angle_gamma                      60.051193
_cell_volume                           788.091254
_space_group_name_H-M_alt              'P 1'
_space_group_IT_number                 1

loop_
_space_group_symop_operation_xyz
   'x, y, z'

loop_
   _atom_site_label
   _atom_site_occupancy
   _atom_site_fract_x
   _atom_site_fract_y
   _atom_site_fract_z
   _atom_site_adp_type
   _atom_site_U_iso_or_equiv
   _atom_site_type_symbol
   Mg1        1.0     0.112124     0.093584     0.323880    Uiso  ? Mg
   Mg2        1.0     0.777625     0.093584     0.323880    Uiso  ? Mg
   Al1        1.0     0.220006     0.207434     0.076959    Uiso  ? Al
   Al2        1.0     0.773377     0.090148     0.835550    Uiso  ? Al
   Al3        1.0     0.441212     0.100910     0.321767    Uiso  ? Al
   Al4        1.0     0.555894     0.207434     0.076959    Uiso  ? Al
   Al5        1.0     0.119808     0.090148     0.835550    Uiso  ? Al
   Al6        1.0     0.222772     0.211376     0.571499    Uiso  ? Al
   Al7        1.0     0.888919     0.205495     0.069261    Uiso  ? Al
   Al8        1.0     0.439531     0.104271     0.832384    Uiso  ? Al
   Al9        1.0     0.549185     0.211376     0.571499    Uiso  ? Al
   Al10       1.0     0.113519     0.427586     0.326013    Uiso  ? Al
   Al11       1.0     0.222246     0.538842     0.075457    Uiso  ? Al
   Al12       1.0     0.773028     0.437278     0.831767    Uiso  ? Al
   Al13       1.0     0.893544     0.539237     0.571889    Uiso  ? Al
   Al14       1.0     0.442228     0.427586     0.326013    Uiso  ? Al
   Al15       1.0     0.554671     0.537951     0.078183    Uiso  ? Al
   Al16       1.0     0.111180     0.428278     0.826235    Uiso  ? Al
   Al17       1.0     0.222247     0.538840     0.575037    Uiso  ? Al
   Al18       1.0     0.777114     0.429106     0.323157    Uiso  ? Al
   Al19       1.0     0.890712     0.537951     0.078183    Uiso  ? Al
   Al20       1.0     0.443875     0.428278     0.826235    Uiso  ? Al
   Al21       1.0     0.550552     0.539237     0.571889    Uiso  ? Al
   Al22       1.0     0.113619     0.756095     0.325804    Uiso  ? Al
   Al23       1.0     0.219883     0.872639     0.076788    Uiso  ? Al
   Al24       1.0     0.786570     0.756352     0.832403    Uiso  ? Al
   Al25       1.0     0.895519     0.864498     0.572426    Uiso  ? Al
   Al26       1.0     0.442575     0.759246     0.321386    Uiso  ? Al
   Al27       1.0     0.555124     0.873086     0.072334    Uiso  ? Al
   Al28       1.0     0.111869     0.759596     0.826570    Uiso  ? Al
   Al29       1.0     0.223317     0.864498     0.572426    Uiso  ? Al
   Al30       1.0     0.781512     0.759246     0.321386    Uiso  ? Al
   Al31       1.0     0.890811     0.872639     0.076788    Uiso  ? Al
   Al32       1.0     0.440412     0.756352     0.832403    Uiso  ? Al
   Hf1        1.0     0.888525     0.206283     0.592777    Uiso  ? Hf
   Hf2        1.0     0.554906     0.873522     0.589463    Uiso  ? Hf
   N1         1.0     0.228354     0.212496     0.382611    Uiso  ? N
   N2         1.0     0.109243     0.095294     0.113295    Uiso  ? N
   N3         1.0     0.887613     0.208107     0.865194    Uiso  ? N
   N4         1.0     0.766313     0.081474     0.637416    Uiso  ? N
   N5         1.0     0.542484     0.212496     0.382611    Uiso  ? N
   N6         1.0     0.444821     0.093691     0.127226    Uiso  ? N
   N7         1.0     0.221407     0.209874     0.883809    Uiso  ? N
   N8         1.0     0.135547     0.081474     0.637416    Uiso  ? N
   N9         1.0     0.880780     0.221774     0.389854    Uiso  ? N
   N10        1.0     0.778795     0.095294     0.113295    Uiso  ? N
   N11        1.0     0.552052     0.209874     0.883809    Uiso  ? N
   N12        1.0     0.434521     0.114292     0.639671    Uiso  ? N
   N13        1.0     0.222642     0.538048     0.382785    Uiso  ? N
   N14        1.0     0.111415     0.428881     0.132176    Uiso  ? N
   N15        1.0     0.891264     0.537940     0.885669    Uiso  ? N
   N16        1.0     0.765364     0.452605     0.638221    Uiso  ? N
   N17        1.0     0.555501     0.539886     0.378999    Uiso  ? N
   N18        1.0     0.443037     0.428881     0.132176    Uiso  ? N
   N19        1.0     0.222477     0.538379     0.880989    Uiso  ? N
   N20        1.0     0.109734     0.428526     0.632422    Uiso  ? N
   N21        1.0     0.887946     0.539886     0.378999    Uiso  ? N
   N22        1.0     0.778007     0.427320     0.127838    Uiso  ? N
   N23        1.0     0.554129     0.537940     0.885669    Uiso  ? N
   N24        1.0     0.445074     0.428526     0.632422    Uiso  ? N
   N25        1.0     0.230138     0.856181     0.383068    Uiso  ? N
   N26        1.0     0.112111     0.759112     0.131420    Uiso  ? N
   N27        1.0     0.892491     0.868605     0.883697    Uiso  ? N
   N28        1.0     0.796647     0.750493     0.638838    Uiso  ? N
   N29        1.0     0.555359     0.872616     0.377432    Uiso  ? N
   N30        1.0     0.445049     0.761886     0.127593    Uiso  ? N
   N31        1.0     0.222237     0.868605     0.883697    Uiso  ? N
   N32        1.0     0.111737     0.759860     0.633911    Uiso  ? N
   N33        1.0     0.897014     0.856181     0.383068    Uiso  ? N
   N34        1.0     0.776398     0.761886     0.127593    Uiso  ? N
   N35        1.0     0.555342     0.872650     0.870885    Uiso  ? N
   N36        1.0     0.436193     0.750493     0.638838    Uiso  ? N
