
#======================================================================
# CRYSTAL DATA
#----------------------------------------------------------------------
data_VESTA_phase_1

_chemical_name_common                  'Mg   Al   Hf   N                      '
_cell_length_a                         9.526126
_cell_length_b                         9.547288
_cell_length_c                         10.043789
_cell_angle_alpha                      90.031944
_cell_angle_beta                       90.000000
_cell_angle_gamma                      60.073311
_cell_volume                           791.671132
_space_group_name_H-M_alt              'P 1'
_space_group_IT_number                 1

loop_
_space_group_symop_operation_xyz
   'x, y, z'

loop_
   _atom_site_label
   _atom_site_occupancy
   _atom_site_fract_x
   _atom_site_fract_y
   _atom_site_fract_z
   _atom_site_adp_type
   _atom_site_U_iso_or_equiv
   _atom_site_type_symbol
   Mg1        1.0     0.120088     0.089488     0.393357    Uiso  ? Mg
   Mg2        1.0     0.773757     0.089488     0.393357    Uiso  ? Mg
   Al1        1.0     0.221606     0.208058     0.152675    Uiso  ? Al
   Al2        1.0     0.777186     0.093622     0.905827    Uiso  ? Al
   Al3        1.0     0.437936     0.107462     0.394747    Uiso  ? Al
   Al4        1.0     0.553670     0.208058     0.152675    Uiso  ? Al
   Al5        1.0     0.112525     0.093622     0.905827    Uiso  ? Al
   Al6        1.0     0.221471     0.211155     0.655459    Uiso  ? Al
   Al7        1.0     0.887967     0.207399     0.161931    Uiso  ? Al
   Al8        1.0     0.443101     0.097131     0.907271    Uiso  ? Al
   Al9        1.0     0.550707     0.211155     0.655459    Uiso  ? Al
   Al10       1.0     0.112273     0.427144     0.399476    Uiso  ? Al
   Al11       1.0     0.222094     0.539146     0.154642    Uiso  ? Al
   Al12       1.0     0.777015     0.429304     0.905979    Uiso  ? Al
   Al13       1.0     0.894049     0.539604     0.653627    Uiso  ? Al
   Al14       1.0     0.443917     0.427144     0.399475    Uiso  ? Al
   Al15       1.0     0.555088     0.538247     0.151978    Uiso  ? Al
   Al16       1.0     0.111728     0.428934     0.903459    Uiso  ? Al
   Al17       1.0     0.222474     0.538385     0.650563    Uiso  ? Al
   Al18       1.0     0.773602     0.436129     0.395577    Uiso  ? Al
   Al19       1.0     0.889999     0.538247     0.151978    Uiso  ? Al
   Al20       1.0     0.442672     0.428934     0.903459    Uiso  ? Al
   Al21       1.0     0.549680     0.539604     0.653627    Uiso  ? Al
   Al22       1.0     0.112783     0.757767     0.399770    Uiso  ? Al
   Al23       1.0     0.221798     0.869525     0.152094    Uiso  ? Al
   Al24       1.0     0.779893     0.759668     0.907068    Uiso  ? Al
   Al25       1.0     0.894974     0.866509     0.655693    Uiso  ? Al
   Al26       1.0     0.439562     0.756284     0.395309    Uiso  ? Al
   Al27       1.0     0.555203     0.872927     0.156405    Uiso  ? Al
   Al28       1.0     0.112498     0.758338     0.903422    Uiso  ? Al
   Al29       1.0     0.221850     0.866509     0.655693    Uiso  ? Al
   Al30       1.0     0.787488     0.756284     0.395309    Uiso  ? Al
   Al31       1.0     0.892010     0.869525     0.152094    Uiso  ? Al
   Al32       1.0     0.443773     0.759668     0.907068    Uiso  ? Al
   Hf1        1.0     0.888687     0.205959     0.635602    Uiso  ? Hf
   Hf2        1.0     0.554747     0.873839     0.638240    Uiso  ? Hf
   N1         1.0     0.226337     0.215669     0.337603    Uiso  ? N
   N2         1.0     0.110632     0.094201     0.096935    Uiso  ? N
   N3         1.0     0.888220     0.206893     0.848089    Uiso  ? N
   N4         1.0     0.767790     0.082447     0.603926    Uiso  ? N
   N5         1.0     0.541327     0.215669     0.337603    Uiso  ? N
   N6         1.0     0.445502     0.092329     0.095260    Uiso  ? N
   N7         1.0     0.222809     0.206639     0.846997    Uiso  ? N
   N8         1.0     0.133096     0.082448     0.603926    Uiso  ? N
   N9         1.0     0.881450     0.220433     0.352066    Uiso  ? N
   N10        1.0     0.778500     0.094201     0.096935    Uiso  ? N
   N11        1.0     0.553885     0.206639     0.846997    Uiso  ? N
   N12        1.0     0.433963     0.115407     0.589114    Uiso  ? N
   N13        1.0     0.222558     0.538217     0.345714    Uiso  ? N
   N14        1.0     0.110605     0.429670     0.092418    Uiso  ? N
   N15        1.0     0.888559     0.539491     0.844660    Uiso  ? N
   N16        1.0     0.765440     0.452453     0.590544    Uiso  ? N
   N17        1.0     0.554353     0.539012     0.341362    Uiso  ? N
   N18        1.0     0.443058     0.429670     0.092418    Uiso  ? N
   N19        1.0     0.222511     0.538311     0.841791    Uiso  ? N
   N20        1.0     0.110502     0.427546     0.594075    Uiso  ? N
   N21        1.0     0.889969     0.539012     0.341362    Uiso  ? N
   N22        1.0     0.777576     0.428182     0.095127    Uiso  ? N
   N23        1.0     0.555283     0.539491     0.844660    Uiso  ? N
   N24        1.0     0.445285     0.427546     0.594075    Uiso  ? N
   N25        1.0     0.228304     0.855308     0.337493    Uiso  ? N
   N26        1.0     0.112492     0.758348     0.091218    Uiso  ? N
   N27        1.0     0.889522     0.870247     0.847093    Uiso  ? N
   N28        1.0     0.797139     0.751607     0.588740    Uiso  ? N
   N29        1.0     0.555083     0.873168     0.355280    Uiso  ? N
   N30        1.0     0.446395     0.761054     0.095877    Uiso  ? N
   N31        1.0     0.223564     0.870247     0.847093    Uiso  ? N
   N32        1.0     0.111589     0.760155     0.594979    Uiso  ? N
   N33        1.0     0.899721     0.855308     0.337493    Uiso  ? N
   N34        1.0     0.775883     0.761054     0.095877    Uiso  ? N
   N35        1.0     0.555390     0.872554     0.847482    Uiso  ? N
   N36        1.0     0.434587     0.751607     0.588740    Uiso  ? N
