
#======================================================================
# CRYSTAL DATA
#----------------------------------------------------------------------
data_VESTA_phase_1

_chemical_name_common                  'Mg   Al   Hf   N                      '
_cell_length_a                         10.029622
_cell_length_b                         10.050130
_cell_length_c                         8.548475
_cell_angle_alpha                      90.006935
_cell_angle_beta                       90.000000
_cell_angle_gamma                      60.067486
_cell_volume                           746.741801
_space_group_name_H-M_alt              'P 1'
_space_group_IT_number                 1

loop_
_space_group_symop_operation_xyz
   'x, y, z'

loop_
   _atom_site_label
   _atom_site_occupancy
   _atom_site_fract_x
   _atom_site_fract_y
   _atom_site_fract_z
   _atom_site_adp_type
   _atom_site_U_iso_or_equiv
   _atom_site_type_symbol
   Mg1        1.0     0.118037     0.090463     0.345668    Uiso  ? Mg
   Mg2        1.0     0.774834     0.090463     0.345668    Uiso  ? Mg
   Al1        1.0     0.218765     0.208460     0.103112    Uiso  ? Al
   Al2        1.0     0.774963     0.091455     0.860890    Uiso  ? Al
   Al3        1.0     0.440287     0.102759     0.336773    Uiso  ? Al
   Al4        1.0     0.556108     0.208460     0.103112    Uiso  ? Al
   Al5        1.0     0.116915     0.091455     0.860890    Uiso  ? Al
   Al6        1.0     0.221960     0.210184     0.593289    Uiso  ? Al
   Al7        1.0     0.889023     0.205288     0.107614    Uiso  ? Al
   Al8        1.0     0.439850     0.103632     0.861041    Uiso  ? Al
   Al9        1.0     0.551189     0.210184     0.593289    Uiso  ? Al
   Al10       1.0     0.112524     0.429621     0.347161    Uiso  ? Al
   Al11       1.0     0.222471     0.538390     0.095710    Uiso  ? Al
   Al12       1.0     0.775081     0.433172     0.859772    Uiso  ? Al
   Al13       1.0     0.892459     0.539257     0.599779    Uiso  ? Al
   Al14       1.0     0.441188     0.429622     0.347161    Uiso  ? Al
   Al15       1.0     0.553935     0.537759     0.097972    Uiso  ? Al
   Al16       1.0     0.112005     0.427030     0.850070    Uiso  ? Al
   Al17       1.0     0.222208     0.538917     0.600858    Uiso  ? Al
   Al18       1.0     0.774483     0.434368     0.339031    Uiso  ? Al
   Al19       1.0     0.891640     0.537759     0.097972    Uiso  ? Al
   Al20       1.0     0.444298     0.427030     0.850070    Uiso  ? Al
   Al21       1.0     0.551617     0.539257     0.599779    Uiso  ? Al
   Al22       1.0     0.114682     0.753970     0.345266    Uiso  ? Al
   Al23       1.0     0.219633     0.871701     0.102602    Uiso  ? Al
   Al24       1.0     0.785003     0.758329     0.860575    Uiso  ? Al
   Al25       1.0     0.894456     0.866693     0.594754    Uiso  ? Al
   Al26       1.0     0.442980     0.756279     0.338570    Uiso  ? Al
   Al27       1.0     0.555289     0.872756     0.099700    Uiso  ? Al
   Al28       1.0     0.111478     0.760377     0.851261    Uiso  ? Al
   Al29       1.0     0.222183     0.866694     0.594754    Uiso  ? Al
   Al30       1.0     0.784075     0.756279     0.338570    Uiso  ? Al
   Al31       1.0     0.891999     0.871702     0.102602    Uiso  ? Al
   Al32       1.0     0.440001     0.758329     0.860575    Uiso  ? Al
   Hf1        1.0     0.888232     0.206868     0.600277    Uiso  ? Hf
   Hf2        1.0     0.554852     0.873629     0.605093    Uiso  ? Hf
   N1         1.0     0.227346     0.213768     0.355498    Uiso  ? N
   N2         1.0     0.111784     0.093298     0.096986    Uiso  ? N
   N3         1.0     0.887439     0.208455     0.860154    Uiso  ? N
   N4         1.0     0.769818     0.084859     0.614783    Uiso  ? N
   N5         1.0     0.542219     0.213768     0.355498    Uiso  ? N
   N6         1.0     0.444475     0.094383     0.104275    Uiso  ? N
   N7         1.0     0.221250     0.208876     0.862909    Uiso  ? N
   N8         1.0     0.128656     0.084859     0.614783    Uiso  ? N
   N9         1.0     0.881686     0.219962     0.350266    Uiso  ? N
   N10        1.0     0.778252     0.093298     0.096986    Uiso  ? N
   N11        1.0     0.553208     0.208876     0.862909    Uiso  ? N
   N12        1.0     0.436668     0.109997     0.614590    Uiso  ? N
   N13        1.0     0.222714     0.537906     0.361357    Uiso  ? N
   N14        1.0     0.110815     0.430117     0.108334    Uiso  ? N
   N15        1.0     0.890844     0.538802     0.861419    Uiso  ? N
   N16        1.0     0.768237     0.446859     0.614385    Uiso  ? N
   N17        1.0     0.555459     0.539133     0.356114    Uiso  ? N
   N18        1.0     0.442401     0.430117     0.108334    Uiso  ? N
   N19        1.0     0.222842     0.537649     0.856698    Uiso  ? N
   N20        1.0     0.109866     0.428265     0.609612    Uiso  ? N
   N21        1.0     0.888741     0.539133     0.356114    Uiso  ? N
   N22        1.0     0.775952     0.431429     0.103294    Uiso  ? N
   N23        1.0     0.553688     0.538802     0.861419    Uiso  ? N
   N24        1.0     0.445202     0.428265     0.609612    Uiso  ? N
   N25        1.0     0.229242     0.856151     0.355556    Uiso  ? N
   N26        1.0     0.112996     0.757341     0.106052    Uiso  ? N
   N27        1.0     0.891324     0.869713     0.862337    Uiso  ? N
   N28        1.0     0.792180     0.753524     0.612535    Uiso  ? N
   N29        1.0     0.555255     0.872823     0.348894    Uiso  ? N
   N30        1.0     0.445295     0.760294     0.104957    Uiso  ? N
   N31        1.0     0.222296     0.869713     0.862337    Uiso  ? N
   N32        1.0     0.111690     0.759953     0.612308    Uiso  ? N
   N33        1.0     0.897940     0.856151     0.355556    Uiso  ? N
   N34        1.0     0.777744     0.760294     0.104957    Uiso  ? N
   N35        1.0     0.555386     0.872561     0.862645    Uiso  ? N
   N36        1.0     0.437629     0.753524     0.612535    Uiso  ? N
