
#======================================================================
# CRYSTAL DATA
#----------------------------------------------------------------------
data_VESTA_phase_1

_chemical_name_common                  'Mg   Al   Hf   N                      '
_cell_length_a                         9.526156
_cell_length_b                         9.547319
_cell_length_c                         10.043675
_cell_angle_alpha                      90.031876
_cell_angle_beta                       90.000000
_cell_angle_gamma                      60.073318
_cell_volume                           791.667393
_space_group_name_H-M_alt              'P 1'
_space_group_IT_number                 1

loop_
_space_group_symop_operation_xyz
   'x, y, z'

loop_
   _atom_site_label
   _atom_site_occupancy
   _atom_site_fract_x
   _atom_site_fract_y
   _atom_site_fract_z
   _atom_site_adp_type
   _atom_site_U_iso_or_equiv
   _atom_site_type_symbol
   Mg1        1.0     0.120098     0.089478     0.386440    Uiso  ? Mg
   Mg2        1.0     0.773757     0.089478     0.386441    Uiso  ? Mg
   Al1        1.0     0.221609     0.208053     0.145759    Uiso  ? Al
   Al2        1.0     0.777189     0.093620     0.898909    Uiso  ? Al
   Al3        1.0     0.437937     0.107459     0.387835    Uiso  ? Al
   Al4        1.0     0.553672     0.208053     0.145759    Uiso  ? Al
   Al5        1.0     0.112524     0.093620     0.898909    Uiso  ? Al
   Al6        1.0     0.221473     0.211151     0.648544    Uiso  ? Al
   Al7        1.0     0.887970     0.207394     0.155025    Uiso  ? Al
   Al8        1.0     0.443104     0.097126     0.900351    Uiso  ? Al
   Al9        1.0     0.550710     0.211151     0.648545    Uiso  ? Al
   Al10       1.0     0.112275     0.427138     0.392560    Uiso  ? Al
   Al11       1.0     0.222096     0.539142     0.147730    Uiso  ? Al
   Al12       1.0     0.777019     0.429295     0.899064    Uiso  ? Al
   Al13       1.0     0.894052     0.539598     0.646718    Uiso  ? Al
   Al14       1.0     0.443920     0.427138     0.392560    Uiso  ? Al
   Al15       1.0     0.555091     0.538242     0.145062    Uiso  ? Al
   Al16       1.0     0.111731     0.428930     0.896547    Uiso  ? Al
   Al17       1.0     0.222477     0.538379     0.643646    Uiso  ? Al
   Al18       1.0     0.773603     0.436127     0.388666    Uiso  ? Al
   Al19       1.0     0.890000     0.538242     0.145063    Uiso  ? Al
   Al20       1.0     0.442673     0.428929     0.896547    Uiso  ? Al
   Al21       1.0     0.549683     0.539597     0.646718    Uiso  ? Al
   Al22       1.0     0.112785     0.757762     0.392854    Uiso  ? Al
   Al23       1.0     0.221802     0.869520     0.145176    Uiso  ? Al
   Al24       1.0     0.779893     0.759664     0.900150    Uiso  ? Al
   Al25       1.0     0.894977     0.866504     0.648778    Uiso  ? Al
   Al26       1.0     0.439564     0.756277     0.388396    Uiso  ? Al
   Al27       1.0     0.555205     0.872922     0.149489    Uiso  ? Al
   Al28       1.0     0.112500     0.758333     0.896508    Uiso  ? Al
   Al29       1.0     0.221853     0.866503     0.648778    Uiso  ? Al
   Al30       1.0     0.787492     0.756277     0.388397    Uiso  ? Al
   Al31       1.0     0.892012     0.869520     0.145177    Uiso  ? Al
   Al32       1.0     0.443776     0.759664     0.900150    Uiso  ? Al
   Hf1        1.0     0.888689     0.205950     0.628672    Uiso  ? Hf
   Hf2        1.0     0.554751     0.873835     0.631318    Uiso  ? Hf
   N1         1.0     0.226339     0.215665     0.330688    Uiso  ? N
   N2         1.0     0.110632     0.094198     0.090022    Uiso  ? N
   N3         1.0     0.888223     0.206889     0.841166    Uiso  ? N
   N4         1.0     0.767791     0.082441     0.597011    Uiso  ? N
   N5         1.0     0.541329     0.215665     0.330687    Uiso  ? N
   N6         1.0     0.445505     0.092323     0.088343    Uiso  ? N
   N7         1.0     0.222810     0.206636     0.840084    Uiso  ? N
   N8         1.0     0.133104     0.082440     0.597011    Uiso  ? N
   N9         1.0     0.881454     0.220426     0.345167    Uiso  ? N
   N10        1.0     0.778504     0.094198     0.090022    Uiso  ? N
   N11        1.0     0.553887     0.206636     0.840084    Uiso  ? N
   N12        1.0     0.433964     0.115405     0.582201    Uiso  ? N
   N13        1.0     0.222561     0.538211     0.338803    Uiso  ? N
   N14        1.0     0.110608     0.429666     0.085507    Uiso  ? N
   N15        1.0     0.888562     0.539485     0.837751    Uiso  ? N
   N16        1.0     0.765442     0.452451     0.583634    Uiso  ? N
   N17        1.0     0.554356     0.539006     0.334448    Uiso  ? N
   N18        1.0     0.443060     0.429666     0.085507    Uiso  ? N
   N19        1.0     0.222514     0.538306     0.834877    Uiso  ? N
   N20        1.0     0.110503     0.427541     0.587161    Uiso  ? N
   N21        1.0     0.889971     0.539006     0.334448    Uiso  ? N
   N22        1.0     0.777580     0.428173     0.088215    Uiso  ? N
   N23        1.0     0.555286     0.539486     0.837751    Uiso  ? N
   N24        1.0     0.445289     0.427542     0.587161    Uiso  ? N
   N25        1.0     0.228309     0.855301     0.330578    Uiso  ? N
   N26        1.0     0.112495     0.758343     0.084306    Uiso  ? N
   N27        1.0     0.889525     0.870243     0.840179    Uiso  ? N
   N28        1.0     0.797143     0.751600     0.581828    Uiso  ? N
   N29        1.0     0.555085     0.873163     0.348371    Uiso  ? N
   N30        1.0     0.446399     0.761050     0.088961    Uiso  ? N
   N31        1.0     0.223566     0.870243     0.840179    Uiso  ? N
   N32        1.0     0.111592     0.760150     0.588065    Uiso  ? N
   N33        1.0     0.899724     0.855301     0.330577    Uiso  ? N
   N34        1.0     0.775884     0.761050     0.088961    Uiso  ? N
   N35        1.0     0.555392     0.872549     0.840562    Uiso  ? N
   N36        1.0     0.434589     0.751600     0.581828    Uiso  ? N
