
#======================================================================
# CRYSTAL DATA
#----------------------------------------------------------------------
data_VESTA_phase_1

_chemical_name_common                  'Mg   Al   Hf   N                      '
_cell_length_a                         9.532128
_cell_length_b                         9.545083
_cell_length_c                         10.032154
_cell_angle_alpha                      90.011505
_cell_angle_beta                       90.000000
_cell_angle_gamma                      60.044891
_cell_volume                           790.843744
_space_group_name_H-M_alt              'P 1'
_space_group_IT_number                 1

loop_
_space_group_symop_operation_xyz
   'x, y, z'

loop_
   _atom_site_label
   _atom_site_occupancy
   _atom_site_fract_x
   _atom_site_fract_y
   _atom_site_fract_z
   _atom_site_adp_type
   _atom_site_U_iso_or_equiv
   _atom_site_type_symbol
   Mg1        1.0     0.112327     0.093603     0.321361    Uiso  ? Mg
   Mg2        1.0     0.777404     0.093603     0.321361    Uiso  ? Mg
   Al1        1.0     0.220179     0.207185     0.074354    Uiso  ? Al
   Al2        1.0     0.773625     0.090330     0.832204    Uiso  ? Al
   Al3        1.0     0.440680     0.101973     0.320306    Uiso  ? Al
   Al4        1.0     0.555969     0.207185     0.074354    Uiso  ? Al
   Al5        1.0     0.119379     0.090330     0.832204    Uiso  ? Al
   Al6        1.0     0.222848     0.211556     0.570592    Uiso  ? Al
   Al7        1.0     0.888981     0.205372     0.067483    Uiso  ? Al
   Al8        1.0     0.440424     0.102485     0.830218    Uiso  ? Al
   Al9        1.0     0.548930     0.211556     0.570592    Uiso  ? Al
   Al10       1.0     0.113440     0.427233     0.324647    Uiso  ? Al
   Al11       1.0     0.222162     0.539010     0.074768    Uiso  ? Al
   Al12       1.0     0.773447     0.436439     0.829405    Uiso  ? Al
   Al13       1.0     0.893746     0.539211     0.570621    Uiso  ? Al
   Al14       1.0     0.442660     0.427233     0.324647    Uiso  ? Al
   Al15       1.0     0.554830     0.537955     0.076273    Uiso  ? Al
   Al16       1.0     0.111234     0.428449     0.824939    Uiso  ? Al
   Al17       1.0     0.222256     0.538821     0.572952    Uiso  ? Al
   Al18       1.0     0.777025     0.429283     0.321809    Uiso  ? Al
   Al19       1.0     0.890548     0.537955     0.076273    Uiso  ? Al
   Al20       1.0     0.443650     0.428449     0.824939    Uiso  ? Al
   Al21       1.0     0.550376     0.539211     0.570621    Uiso  ? Al
   Al22       1.0     0.113198     0.756936     0.324824    Uiso  ? Al
   Al23       1.0     0.219830     0.872896     0.074228    Uiso  ? Al
   Al24       1.0     0.784958     0.756986     0.830513    Uiso  ? Al
   Al25       1.0     0.895529     0.864328     0.571549    Uiso  ? Al
   Al26       1.0     0.441767     0.759060     0.319637    Uiso  ? Al
   Al27       1.0     0.555062     0.873209     0.072595    Uiso  ? Al
   Al28       1.0     0.111981     0.759372     0.824983    Uiso  ? Al
   Al29       1.0     0.223476     0.864328     0.571549    Uiso  ? Al
   Al30       1.0     0.782506     0.759060     0.319637    Uiso  ? Al
   Al31       1.0     0.890608     0.872896     0.074228    Uiso  ? Al
   Al32       1.0     0.441389     0.756986     0.830513    Uiso  ? Al
   Hf1        1.0     0.888638     0.206058     0.588776    Uiso  ? Hf
   Hf2        1.0     0.554926     0.873481     0.583024    Uiso  ? Hf
   N1         1.0     0.228237     0.212438     0.384378    Uiso  ? N
   N2         1.0     0.109433     0.095314     0.114051    Uiso  ? N
   N3         1.0     0.887821     0.207691     0.866206    Uiso  ? N
   N4         1.0     0.766343     0.081677     0.637616    Uiso  ? N
   N5         1.0     0.542658     0.212438     0.384378    Uiso  ? N
   N6         1.0     0.444346     0.094642     0.128358    Uiso  ? N
   N7         1.0     0.221692     0.209375     0.883471    Uiso  ? N
   N8         1.0     0.135313     0.081677     0.637617    Uiso  ? N
   N9         1.0     0.880871     0.221591     0.389449    Uiso  ? N
   N10        1.0     0.778587     0.095314     0.114051    Uiso  ? N
   N11        1.0     0.552266     0.209375     0.883471    Uiso  ? N
   N12        1.0     0.435201     0.112931     0.640025    Uiso  ? N
   N13        1.0     0.222588     0.538157     0.382920    Uiso  ? N
   N14        1.0     0.111375     0.428494     0.132788    Uiso  ? N
   N15        1.0     0.890935     0.537994     0.885786    Uiso  ? N
   N16        1.0     0.765706     0.451921     0.638263    Uiso  ? N
   N17        1.0     0.555394     0.539939     0.380090    Uiso  ? N
   N18        1.0     0.443465     0.428494     0.132788    Uiso  ? N
   N19        1.0     0.222425     0.538484     0.882315    Uiso  ? N
   N20        1.0     0.109904     0.428781     0.633224    Uiso  ? N
   N21        1.0     0.888001     0.539939     0.380090    Uiso  ? N
   N22        1.0     0.777950     0.427433     0.128827    Uiso  ? N
   N23        1.0     0.554405     0.537994     0.885786    Uiso  ? N
   N24        1.0     0.444648     0.428781     0.633224    Uiso  ? N
   N25        1.0     0.229971     0.856586     0.384864    Uiso  ? N
   N26        1.0     0.111744     0.759845     0.132274    Uiso  ? N
   N27        1.0     0.892135     0.868753     0.883371    Uiso  ? N
   N28        1.0     0.795344     0.750984     0.639294    Uiso  ? N
   N29        1.0     0.555378     0.872578     0.374843    Uiso  ? N
   N30        1.0     0.444430     0.761681     0.128542    Uiso  ? N
   N31        1.0     0.222445     0.868753     0.883371    Uiso  ? N
   N32        1.0     0.111894     0.759545     0.634557    Uiso  ? N
   N33        1.0     0.896776     0.856586     0.384864    Uiso  ? N
   N34        1.0     0.777223     0.761681     0.128542    Uiso  ? N
   N35        1.0     0.555362     0.872609     0.874227    Uiso  ? N
   N36        1.0     0.437006     0.750984     0.639294    Uiso  ? N
