
#======================================================================
# CRYSTAL DATA
#----------------------------------------------------------------------
data_VESTA_phase_1

_chemical_name_common                  'Mg   Al   Hf   N                      '
_cell_length_a                         9.526123
_cell_length_b                         9.547285
_cell_length_c                         10.043800
_cell_angle_alpha                      90.032005
_cell_angle_beta                       90.000000
_cell_angle_gamma                      60.073296
_cell_volume                           791.671437
_space_group_name_H-M_alt              'P 1'
_space_group_IT_number                 1

loop_
_space_group_symop_operation_xyz
   'x, y, z'

loop_
   _atom_site_label
   _atom_site_occupancy
   _atom_site_fract_x
   _atom_site_fract_y
   _atom_site_fract_z
   _atom_site_adp_type
   _atom_site_U_iso_or_equiv
   _atom_site_type_symbol
   Mg1        1.0     0.120087     0.089490     0.396634    Uiso  ? Mg
   Mg2        1.0     0.773756     0.089490     0.396634    Uiso  ? Mg
   Al1        1.0     0.221605     0.208059     0.155956    Uiso  ? Al
   Al2        1.0     0.777184     0.093624     0.909099    Uiso  ? Al
   Al3        1.0     0.437935     0.107463     0.398025    Uiso  ? Al
   Al4        1.0     0.553669     0.208059     0.155956    Uiso  ? Al
   Al5        1.0     0.112525     0.093624     0.909099    Uiso  ? Al
   Al6        1.0     0.221469     0.211159     0.658732    Uiso  ? Al
   Al7        1.0     0.887966     0.207402     0.165209    Uiso  ? Al
   Al8        1.0     0.443099     0.097135     0.910542    Uiso  ? Al
   Al9        1.0     0.550706     0.211159     0.658732    Uiso  ? Al
   Al10       1.0     0.112272     0.427147     0.402754    Uiso  ? Al
   Al11       1.0     0.222092     0.539149     0.157921    Uiso  ? Al
   Al12       1.0     0.777014     0.429306     0.909256    Uiso  ? Al
   Al13       1.0     0.894048     0.539606     0.656908    Uiso  ? Al
   Al14       1.0     0.443915     0.427147     0.402754    Uiso  ? Al
   Al15       1.0     0.555087     0.538250     0.155259    Uiso  ? Al
   Al16       1.0     0.111727     0.428935     0.906742    Uiso  ? Al
   Al17       1.0     0.222473     0.538387     0.653845    Uiso  ? Al
   Al18       1.0     0.773601     0.436131     0.398855    Uiso  ? Al
   Al19       1.0     0.889997     0.538250     0.155259    Uiso  ? Al
   Al20       1.0     0.442671     0.428935     0.906742    Uiso  ? Al
   Al21       1.0     0.549679     0.539605     0.656908    Uiso  ? Al
   Al22       1.0     0.112782     0.757768     0.403049    Uiso  ? Al
   Al23       1.0     0.221798     0.869528     0.155373    Uiso  ? Al
   Al24       1.0     0.779893     0.759670     0.910340    Uiso  ? Al
   Al25       1.0     0.894974     0.866511     0.658965    Uiso  ? Al
   Al26       1.0     0.439562     0.756287     0.398587    Uiso  ? Al
   Al27       1.0     0.555202     0.872930     0.159676    Uiso  ? Al
   Al28       1.0     0.112496     0.758341     0.906704    Uiso  ? Al
   Al29       1.0     0.221849     0.866511     0.658965    Uiso  ? Al
   Al30       1.0     0.787485     0.756287     0.398587    Uiso  ? Al
   Al31       1.0     0.892007     0.869528     0.155373    Uiso  ? Al
   Al32       1.0     0.443771     0.759670     0.910340    Uiso  ? Al
   Hf1        1.0     0.888685     0.205962     0.638878    Uiso  ? Hf
   Hf2        1.0     0.554747     0.873840     0.641516    Uiso  ? Hf
   N1         1.0     0.226336     0.215671     0.340882    Uiso  ? N
   N2         1.0     0.110631     0.094204     0.100210    Uiso  ? N
   N3         1.0     0.888219     0.206895     0.851364    Uiso  ? N
   N4         1.0     0.767789     0.082450     0.607201    Uiso  ? N
   N5         1.0     0.541326     0.215671     0.340882    Uiso  ? N
   N6         1.0     0.445500     0.092333     0.098533    Uiso  ? N
   N7         1.0     0.222807     0.206643     0.850270    Uiso  ? N
   N8         1.0     0.133096     0.082449     0.607201    Uiso  ? N
   N9         1.0     0.881449     0.220435     0.355343    Uiso  ? N
   N10        1.0     0.778499     0.094204     0.100210    Uiso  ? N
   N11        1.0     0.553883     0.206643     0.850270    Uiso  ? N
   N12        1.0     0.433962     0.115410     0.592390    Uiso  ? N
   N13        1.0     0.222557     0.538219     0.348992    Uiso  ? N
   N14        1.0     0.110604     0.429671     0.095701    Uiso  ? N
   N15        1.0     0.888560     0.539492     0.847939    Uiso  ? N
   N16        1.0     0.765440     0.452454     0.593822    Uiso  ? N
   N17        1.0     0.554351     0.539014     0.344641    Uiso  ? N
   N18        1.0     0.443058     0.429671     0.095701    Uiso  ? N
   N19        1.0     0.222510     0.538313     0.845073    Uiso  ? N
   N20        1.0     0.110501     0.427550     0.597353    Uiso  ? N
   N21        1.0     0.889968     0.539014     0.344641    Uiso  ? N
   N22        1.0     0.777574     0.428185     0.098404    Uiso  ? N
   N23        1.0     0.555282     0.539492     0.847939    Uiso  ? N
   N24        1.0     0.445283     0.427550     0.597353    Uiso  ? N
   N25        1.0     0.228304     0.855310     0.340772    Uiso  ? N
   N26        1.0     0.112491     0.758352     0.094499    Uiso  ? N
   N27        1.0     0.889522     0.870249     0.850366    Uiso  ? N
   N28        1.0     0.797137     0.751609     0.592017    Uiso  ? N
   N29        1.0     0.555082     0.873170     0.358555    Uiso  ? N
   N30        1.0     0.446394     0.761057     0.099151    Uiso  ? N
   N31        1.0     0.223562     0.870249     0.850366    Uiso  ? N
   N32        1.0     0.111589     0.760155     0.598255    Uiso  ? N
   N33        1.0     0.899720     0.855310     0.340771    Uiso  ? N
   N34        1.0     0.775883     0.761057     0.099151    Uiso  ? N
   N35        1.0     0.555389     0.872556     0.850757    Uiso  ? N
   N36        1.0     0.434587     0.751609     0.592017    Uiso  ? N
