
#======================================================================
# CRYSTAL DATA
#----------------------------------------------------------------------
data_VESTA_phase_1

_chemical_name_common                  'Mg   Al   Hf   N                      '
_cell_length_a                         9.518633
_cell_length_b                         9.530835
_cell_length_c                         10.069991
_cell_angle_alpha                      90.016045
_cell_angle_beta                       90.000000
_cell_angle_gamma                      60.042343
_cell_volume                           791.499012
_space_group_name_H-M_alt              'P 1'
_space_group_IT_number                 1

loop_
_space_group_symop_operation_xyz
   'x, y, z'

loop_
   _atom_site_label
   _atom_site_occupancy
   _atom_site_fract_x
   _atom_site_fract_y
   _atom_site_fract_z
   _atom_site_adp_type
   _atom_site_U_iso_or_equiv
   _atom_site_type_symbol
   Mg1        1.0     0.112558     0.093527     0.313055    Uiso  ? Mg
   Mg2        1.0     0.777248     0.093527     0.313055    Uiso  ? Mg
   Al1        1.0     0.220215     0.207163     0.066092    Uiso  ? Al
   Al2        1.0     0.773762     0.090442     0.823863    Uiso  ? Al
   Al3        1.0     0.440488     0.102357     0.312292    Uiso  ? Al
   Al4        1.0     0.555956     0.207163     0.066092    Uiso  ? Al
   Al5        1.0     0.119129     0.090442     0.823863    Uiso  ? Al
   Al6        1.0     0.222900     0.211569     0.562916    Uiso  ? Al
   Al7        1.0     0.888991     0.205351     0.059658    Uiso  ? Al
   Al8        1.0     0.440747     0.101840     0.822212    Uiso  ? Al
   Al9        1.0     0.548865     0.211569     0.562916    Uiso  ? Al
   Al10       1.0     0.113398     0.427145     0.316836    Uiso  ? Al
   Al11       1.0     0.222133     0.539068     0.067135    Uiso  ? Al
   Al12       1.0     0.773656     0.436022     0.821274    Uiso  ? Al
   Al13       1.0     0.893772     0.539203     0.562855    Uiso  ? Al
   Al14       1.0     0.442790     0.427145     0.316836    Uiso  ? Al
   Al15       1.0     0.554859     0.537945     0.068175    Uiso  ? Al
   Al16       1.0     0.111267     0.428491     0.817091    Uiso  ? Al
   Al17       1.0     0.222252     0.538829     0.564909    Uiso  ? Al
   Al18       1.0     0.776956     0.429421     0.313832    Uiso  ? Al
   Al19       1.0     0.890529     0.537945     0.068175    Uiso  ? Al
   Al20       1.0     0.443576     0.428491     0.817091    Uiso  ? Al
   Al21       1.0     0.550359     0.539203     0.562855    Uiso  ? Al
   Al22       1.0     0.113064     0.757205     0.317115    Uiso  ? Al
   Al23       1.0     0.219812     0.872945     0.065972    Uiso  ? Al
   Al24       1.0     0.784382     0.757212     0.822566    Uiso  ? Al
   Al25       1.0     0.895486     0.864288     0.563885    Uiso  ? Al
   Al26       1.0     0.441510     0.758948     0.311547    Uiso  ? Al
   Al27       1.0     0.555046     0.873241     0.065349    Uiso  ? Al
   Al28       1.0     0.112018     0.759297     0.817066    Uiso  ? Al
   Al29       1.0     0.223559     0.864288     0.563885    Uiso  ? Al
   Al30       1.0     0.782875     0.758948     0.311547    Uiso  ? Al
   Al31       1.0     0.890577     0.872945     0.065972    Uiso  ? Al
   Al32       1.0     0.441739     0.757212     0.822566    Uiso  ? Al
   Hf1        1.0     0.888704     0.205925     0.579714    Uiso  ? Hf
   Hf2        1.0     0.554931     0.873471     0.573356    Uiso  ? Hf
   N1         1.0     0.228230     0.212411     0.377351    Uiso  ? N
   N2         1.0     0.109559     0.095292     0.106620    Uiso  ? N
   N3         1.0     0.887889     0.207554     0.859192    Uiso  ? N
   N4         1.0     0.766419     0.081812     0.630100    Uiso  ? N
   N5         1.0     0.542693     0.212411     0.377351    Uiso  ? N
   N6         1.0     0.444161     0.095012     0.121048    Uiso  ? N
   N7         1.0     0.221776     0.209226     0.875775    Uiso  ? N
   N8         1.0     0.135102     0.081812     0.630100    Uiso  ? N
   N9         1.0     0.880939     0.221455     0.381297    Uiso  ? N
   N10        1.0     0.778482     0.095292     0.106620    Uiso  ? N
   N11        1.0     0.552332     0.209226     0.875775    Uiso  ? N
   N12        1.0     0.435498     0.112338     0.632590    Uiso  ? N
   N13        1.0     0.222563     0.538208     0.375427    Uiso  ? N
   N14        1.0     0.111344     0.428399     0.125431    Uiso  ? N
   N15        1.0     0.890845     0.537982     0.878189    Uiso  ? N
   N16        1.0     0.765926     0.451481     0.630681    Uiso  ? N
   N17        1.0     0.555374     0.539969     0.372883    Uiso  ? N
   N18        1.0     0.443590     0.428399     0.125431    Uiso  ? N
   N19        1.0     0.222412     0.538510     0.875161    Uiso  ? N
   N20        1.0     0.109965     0.428867     0.625893    Uiso  ? N
   N21        1.0     0.887990     0.539969     0.372883    Uiso  ? N
   N22        1.0     0.777881     0.427572     0.121475    Uiso  ? N
   N23        1.0     0.554507     0.537982     0.878189    Uiso  ? N
   N24        1.0     0.444501     0.428867     0.625893    Uiso  ? N
   N25        1.0     0.229958     0.856700     0.377847    Uiso  ? N
   N26        1.0     0.111625     0.760084     0.124977    Uiso  ? N
   N27        1.0     0.892030     0.868791     0.875671    Uiso  ? N
   N28        1.0     0.794760     0.751214     0.631868    Uiso  ? N
   N29        1.0     0.555379     0.872576     0.366121    Uiso  ? N
   N30        1.0     0.444208     0.761575     0.121183    Uiso  ? N
   N31        1.0     0.222513     0.868791     0.875671    Uiso  ? N
   N32        1.0     0.111937     0.759460     0.627192    Uiso  ? N
   N33        1.0     0.896675     0.856700     0.377847    Uiso  ? N
   N34        1.0     0.777550     0.761575     0.121183    Uiso  ? N
   N35        1.0     0.555376     0.872582     0.867897    Uiso  ? N
   N36        1.0     0.437359     0.751214     0.631868    Uiso  ? N
