
#======================================================================
# CRYSTAL DATA
#----------------------------------------------------------------------
data_VESTA_phase_1

_chemical_name_common                  'Mg   Al   Hf   N                      '
_cell_length_a                         9.992424
_cell_length_b                         10.012546
_cell_length_c                         8.656377
_cell_angle_alpha                      90.007607
_cell_angle_beta                       90.000000
_cell_angle_gamma                      60.066467
_cell_volume                           750.537902
_space_group_name_H-M_alt              'P 1'
_space_group_IT_number                 1

loop_
_space_group_symop_operation_xyz
   'x, y, z'

loop_
   _atom_site_label
   _atom_site_occupancy
   _atom_site_fract_x
   _atom_site_fract_y
   _atom_site_fract_z
   _atom_site_adp_type
   _atom_site_U_iso_or_equiv
   _atom_site_type_symbol
   Mg1        1.0     0.117716     0.090580     0.344010    Uiso  ? Mg
   Mg2        1.0     0.775038     0.090580     0.344010    Uiso  ? Mg
   Al1        1.0     0.218508     0.208828     0.100201    Uiso  ? Al
   Al2        1.0     0.775038     0.091598     0.860791    Uiso  ? Al
   Al3        1.0     0.440774     0.101785     0.332884    Uiso  ? Al
   Al4        1.0     0.555998     0.208828     0.100201    Uiso  ? Al
   Al5        1.0     0.116698     0.091598     0.860791    Uiso  ? Al
   Al6        1.0     0.222362     0.210025     0.588575    Uiso  ? Al
   Al7        1.0     0.889005     0.205324     0.106903    Uiso  ? Al
   Al8        1.0     0.439548     0.104237     0.859012    Uiso  ? Al
   Al9        1.0     0.550947     0.210025     0.588575    Uiso  ? Al
   Al10       1.0     0.112787     0.429936     0.343405    Uiso  ? Al
   Al11       1.0     0.222564     0.538206     0.090072    Uiso  ? Al
   Al12       1.0     0.775032     0.433269     0.857545    Uiso  ? Al
   Al13       1.0     0.892239     0.539382     0.594809    Uiso  ? Al
   Al14       1.0     0.440610     0.429936     0.343405    Uiso  ? Al
   Al15       1.0     0.553695     0.537636     0.094252    Uiso  ? Al
   Al16       1.0     0.111773     0.426705     0.845208    Uiso  ? Al
   Al17       1.0     0.222099     0.539135     0.597577    Uiso  ? Al
   Al18       1.0     0.774569     0.434194     0.335622    Uiso  ? Al
   Al19       1.0     0.892002     0.537636     0.094252    Uiso  ? Al
   Al20       1.0     0.444855     0.426705     0.845208    Uiso  ? Al
   Al21       1.0     0.551712     0.539382     0.594809    Uiso  ? Al
   Al22       1.0     0.115029     0.753274     0.340644    Uiso  ? Al
   Al23       1.0     0.219568     0.871711     0.099440    Uiso  ? Al
   Al24       1.0     0.785661     0.758031     0.857747    Uiso  ? Al
   Al25       1.0     0.894548     0.866398     0.590041    Uiso  ? Al
   Al26       1.0     0.443512     0.756628     0.334729    Uiso  ? Al
   Al27       1.0     0.555358     0.872618     0.095925    Uiso  ? Al
   Al28       1.0     0.111153     0.761028     0.847488    Uiso  ? Al
   Al29       1.0     0.222387     0.866398     0.590041    Uiso  ? Al
   Al30       1.0     0.783193     0.756628     0.334729    Uiso  ? Al
   Al31       1.0     0.892054     0.871711     0.099440    Uiso  ? Al
   Al32       1.0     0.439642     0.758031     0.857747    Uiso  ? Al
   Hf1        1.0     0.888226     0.206881     0.600361    Uiso  ? Hf
   Hf2        1.0     0.554786     0.873762     0.605602    Uiso  ? Hf
   N1         1.0     0.227901     0.213537     0.357981    Uiso  ? N
   N2         1.0     0.111231     0.093655     0.098372    Uiso  ? N
   N3         1.0     0.887552     0.208230     0.859923    Uiso  ? N
   N4         1.0     0.769377     0.084430     0.616420    Uiso  ? N
   N5         1.0     0.541896     0.213537     0.357981    Uiso  ? N
   N6         1.0     0.444682     0.093969     0.105777    Uiso  ? N
   N7         1.0     0.220768     0.209280     0.867548    Uiso  ? N
   N8         1.0     0.129526     0.084430     0.616420    Uiso  ? N
   N9         1.0     0.881559     0.220215     0.352863    Uiso  ? N
   N10        1.0     0.778448     0.093655     0.098372    Uiso  ? N
   N11        1.0     0.553286     0.209280     0.867548    Uiso  ? N
   N12        1.0     0.436238     0.110857     0.619674    Uiso  ? N
   N13        1.0     0.222669     0.537996     0.366626    Uiso  ? N
   N14        1.0     0.110942     0.430559     0.112747    Uiso  ? N
   N15        1.0     0.891362     0.538393     0.865573    Uiso  ? N
   N16        1.0     0.767962     0.447410     0.618915    Uiso  ? N
   N17        1.0     0.555550     0.539490     0.359717    Uiso  ? N
   N18        1.0     0.441832     0.430559     0.112747    Uiso  ? N
   N19        1.0     0.222880     0.537574     0.859318    Uiso  ? N
   N20        1.0     0.109766     0.427855     0.613057    Uiso  ? N
   N21        1.0     0.888293     0.539490     0.359717    Uiso  ? N
   N22        1.0     0.776099     0.431136     0.105332    Uiso  ? N
   N23        1.0     0.553578     0.538393     0.865573    Uiso  ? N
   N24        1.0     0.445713     0.427855     0.613057    Uiso  ? N
   N25        1.0     0.229782     0.855641     0.358218    Uiso  ? N
   N26        1.0     0.113299     0.756736     0.109803    Uiso  ? N
   N27        1.0     0.891569     0.869913     0.867018    Uiso  ? N
   N28        1.0     0.792880     0.753306     0.617773    Uiso  ? N
   N29        1.0     0.555239     0.872856     0.352197    Uiso  ? N
   N30        1.0     0.445584     0.760340     0.106778    Uiso  ? N
   N31        1.0     0.221852     0.869913     0.867018    Uiso  ? N
   N32        1.0     0.111370     0.760593     0.616255    Uiso  ? N
   N33        1.0     0.897910     0.855641     0.358218    Uiso  ? N
   N34        1.0     0.777409     0.760340     0.106778    Uiso  ? N
   N35        1.0     0.555410     0.872513     0.863004    Uiso  ? N
   N36        1.0     0.437148     0.753306     0.617773    Uiso  ? N
