
#======================================================================
# CRYSTAL DATA
#----------------------------------------------------------------------
data_VESTA_phase_1

_chemical_name_common                  'Mg   Al   Hf   N                      '
_cell_length_a                         9.684698
_cell_length_b                         9.702031
_cell_length_c                         9.593700
_cell_angle_alpha                      90.006065
_cell_angle_beta                       90.000000
_cell_angle_gamma                      60.059090
_cell_volume                           781.130894
_space_group_name_H-M_alt              'P 1'
_space_group_IT_number                 1

loop_
_space_group_symop_operation_xyz
   'x, y, z'

loop_
   _atom_site_label
   _atom_site_occupancy
   _atom_site_fract_x
   _atom_site_fract_y
   _atom_site_fract_z
   _atom_site_adp_type
   _atom_site_U_iso_or_equiv
   _atom_site_type_symbol
   Mg1        1.0     0.113029     0.092972     0.327707    Uiso  ? Mg
   Mg2        1.0     0.777333     0.092972     0.327707    Uiso  ? Mg
   Al1        1.0     0.219554     0.208266     0.081266    Uiso  ? Al
   Al2        1.0     0.773526     0.090392     0.842438    Uiso  ? Al
   Al3        1.0     0.441827     0.099680     0.322785    Uiso  ? Al
   Al4        1.0     0.555513     0.208266     0.081266    Uiso  ? Al
   Al5        1.0     0.119416     0.090392     0.842438    Uiso  ? Al
   Al6        1.0     0.222885     0.210774     0.573005    Uiso  ? Al
   Al7        1.0     0.888756     0.205821     0.074530    Uiso  ? Al
   Al8        1.0     0.438585     0.106164     0.837091    Uiso  ? Al
   Al9        1.0     0.549674     0.210774     0.573005    Uiso  ? Al
   Al10       1.0     0.113514     0.428453     0.328463    Uiso  ? Al
   Al11       1.0     0.222388     0.538557     0.076272    Uiso  ? Al
   Al12       1.0     0.773005     0.437324     0.836224    Uiso  ? Al
   Al13       1.0     0.892906     0.539414     0.574459    Uiso  ? Al
   Al14       1.0     0.441367     0.428453     0.328463    Uiso  ? Al
   Al15       1.0     0.554194     0.537859     0.080641    Uiso  ? Al
   Al16       1.0     0.111183     0.427790     0.828170    Uiso  ? Al
   Al17       1.0     0.222166     0.539002     0.578889    Uiso  ? Al
   Al18       1.0     0.776766     0.429801     0.324406    Uiso  ? Al
   Al19       1.0     0.891280     0.537859     0.080641    Uiso  ? Al
   Al20       1.0     0.444360     0.427790     0.828170    Uiso  ? Al
   Al21       1.0     0.551014     0.539414     0.574459    Uiso  ? Al
   Al22       1.0     0.114351     0.754632     0.327347    Uiso  ? Al
   Al23       1.0     0.219948     0.871964     0.080912    Uiso  ? Al
   Al24       1.0     0.788232     0.755845     0.836351    Uiso  ? Al
   Al25       1.0     0.895200     0.864917     0.573941    Uiso  ? Al
   Al26       1.0     0.443727     0.759110     0.323069    Uiso  ? Al
   Al27       1.0     0.555268     0.872798     0.073105    Uiso  ? Al
   Al28       1.0     0.111593     0.760148     0.829253    Uiso  ? Al
   Al29       1.0     0.223216     0.864917     0.573941    Uiso  ? Al
   Al30       1.0     0.780496     0.759110     0.323069    Uiso  ? Al
   Al31       1.0     0.891421     0.871964     0.080912    Uiso  ? Al
   Al32       1.0     0.439256     0.755845     0.836351    Uiso  ? Al
   Hf1        1.0     0.888457     0.206420     0.596300    Uiso  ? Hf
   Hf2        1.0     0.554816     0.873702     0.597295    Uiso  ? Hf
   N1         1.0     0.228726     0.212593     0.377568    Uiso  ? N
   N2         1.0     0.109475     0.095008     0.109621    Uiso  ? N
   N3         1.0     0.887329     0.208675     0.863707    Uiso  ? N
   N4         1.0     0.766775     0.081742     0.634719    Uiso  ? N
   N5         1.0     0.542015     0.212593     0.377568    Uiso  ? N
   N6         1.0     0.445288     0.092758     0.122738    Uiso  ? N
   N7         1.0     0.220869     0.210626     0.882531    Uiso  ? N
   N8         1.0     0.134817     0.081742     0.634719    Uiso  ? N
   N9         1.0     0.880830     0.221673     0.384851    Uiso  ? N
   N10        1.0     0.778850     0.095008     0.109621    Uiso  ? N
   N11        1.0     0.551838     0.210626     0.882531    Uiso  ? N
   N12        1.0     0.434163     0.115007     0.637574    Uiso  ? N
   N13        1.0     0.222665     0.538003     0.381186    Uiso  ? N
   N14        1.0     0.111371     0.429751     0.129559    Uiso  ? N
   N15        1.0     0.891864     0.537726     0.883203    Uiso  ? N
   N16        1.0     0.765530     0.452274     0.636287    Uiso  ? N
   N17        1.0     0.555637     0.540006     0.375642    Uiso  ? N
   N18        1.0     0.442211     0.429751     0.129559    Uiso  ? N
   N19        1.0     0.222599     0.538135     0.876729    Uiso  ? N
   N20        1.0     0.109519     0.428093     0.629116    Uiso  ? N
   N21        1.0     0.887691     0.540006     0.375642    Uiso  ? N
   N22        1.0     0.777637     0.428060     0.123733    Uiso  ? N
   N23        1.0     0.553744     0.537726     0.883203    Uiso  ? N
   N24        1.0     0.445721     0.428093     0.629116    Uiso  ? N
   N25        1.0     0.230590     0.855468     0.378022    Uiso  ? N
   N26        1.0     0.112754     0.757826     0.128137    Uiso  ? N
   N27        1.0     0.892978     0.868480     0.882335    Uiso  ? N
   N28        1.0     0.797168     0.750534     0.636395    Uiso  ? N
   N29        1.0     0.555287     0.872759     0.376514    Uiso  ? N
   N30        1.0     0.445795     0.761811     0.123554    Uiso  ? N
   N31        1.0     0.221875     0.868480     0.882335    Uiso  ? N
   N32        1.0     0.111417     0.760500     0.631099    Uiso  ? N
   N33        1.0     0.897276     0.855468     0.378022    Uiso  ? N
   N34        1.0     0.775728     0.761811     0.123554    Uiso  ? N
   N35        1.0     0.555363     0.872606     0.866260    Uiso  ? N
   N36        1.0     0.435631     0.750534     0.636395    Uiso  ? N
