
#======================================================================
# CRYSTAL DATA
#----------------------------------------------------------------------
data_VESTA_phase_1

_chemical_name_common                  'Mg   Al   Hf   N                      '
_cell_length_a                         9.733324
_cell_length_b                         9.751375
_cell_length_c                         9.448694
_cell_angle_alpha                      90.006546
_cell_angle_beta                       90.000000
_cell_angle_gamma                      60.061222
_cell_volume                           777.136066
_space_group_name_H-M_alt              'P 1'
_space_group_IT_number                 1

loop_
_space_group_symop_operation_xyz
   'x, y, z'

loop_
   _atom_site_label
   _atom_site_occupancy
   _atom_site_fract_x
   _atom_site_fract_y
   _atom_site_fract_z
   _atom_site_adp_type
   _atom_site_U_iso_or_equiv
   _atom_site_type_symbol
   Mg1        1.0     0.113803     0.092530     0.329904    Uiso  ? Mg
   Mg2        1.0     0.777000     0.092530     0.329904    Uiso  ? Mg
   Al1        1.0     0.219304     0.208685     0.083643    Uiso  ? Al
   Al2        1.0     0.773795     0.090675     0.846234    Uiso  ? Al
   Al3        1.0     0.441971     0.099391     0.323243    Uiso  ? Al
   Al4        1.0     0.555344     0.208685     0.083643    Uiso  ? Al
   Al5        1.0     0.118864     0.090675     0.846234    Uiso  ? Al
   Al6        1.0     0.222991     0.210478     0.574073    Uiso  ? Al
   Al7        1.0     0.888705     0.205923     0.078772    Uiso  ? Al
   Al8        1.0     0.438413     0.106507     0.840028    Uiso  ? Al
   Al9        1.0     0.549864     0.210478     0.574073    Uiso  ? Al
   Al10       1.0     0.113474     0.428906     0.329981    Uiso  ? Al
   Al11       1.0     0.222454     0.538424     0.076932    Uiso  ? Al
   Al12       1.0     0.773243     0.436846     0.838906    Uiso  ? Al
   Al13       1.0     0.892591     0.539513     0.576214    Uiso  ? Al
   Al14       1.0     0.440953     0.428906     0.329981    Uiso  ? Al
   Al15       1.0     0.553938     0.537795     0.081914    Uiso  ? Al
   Al16       1.0     0.111204     0.427490     0.829435    Uiso  ? Al
   Al17       1.0     0.222118     0.539097     0.581169    Uiso  ? Al
   Al18       1.0     0.776420     0.430492     0.325134    Uiso  ? Al
   Al19       1.0     0.891601     0.537795     0.081914    Uiso  ? Al
   Al20       1.0     0.444639     0.427490     0.829435    Uiso  ? Al
   Al21       1.0     0.551230     0.539513     0.576214    Uiso  ? Al
   Al22       1.0     0.114674     0.753986     0.328363    Uiso  ? Al
   Al23       1.0     0.219949     0.871660     0.083164    Uiso  ? Al
   Al24       1.0     0.788485     0.755888     0.838849    Uiso  ? Al
   Al25       1.0     0.895035     0.865103     0.575048    Uiso  ? Al
   Al26       1.0     0.444099     0.758882     0.323873    Uiso  ? Al
   Al27       1.0     0.555339     0.872656     0.074544    Uiso  ? Al
   Al28       1.0     0.111420     0.760492     0.830953    Uiso  ? Al
   Al29       1.0     0.223195     0.865103     0.575048    Uiso  ? Al
   Al30       1.0     0.780353     0.758882     0.323873    Uiso  ? Al
   Al31       1.0     0.891724     0.871660     0.083164    Uiso  ? Al
   Al32       1.0     0.438960     0.755888     0.838849    Uiso  ? Al
   Hf1        1.0     0.888430     0.206472     0.597241    Uiso  ? Hf
   Hf2        1.0     0.554770     0.873794     0.599926    Uiso  ? Hf
   N1         1.0     0.228892     0.212669     0.374864    Uiso  ? N
   N2         1.0     0.109734     0.094805     0.107650    Uiso  ? N
   N3         1.0     0.887280     0.208773     0.863202    Uiso  ? N
   N4         1.0     0.767112     0.082033     0.632620    Uiso  ? N
   N5         1.0     0.541772     0.212669     0.374864    Uiso  ? N
   N6         1.0     0.445372     0.092590     0.120196    Uiso  ? N
   N7         1.0     0.220623     0.210813     0.881574    Uiso  ? N
   N8         1.0     0.134189     0.082033     0.632620    Uiso  ? N
   N9         1.0     0.880906     0.221522     0.380839    Uiso  ? N
   N10        1.0     0.778795     0.094805     0.107650    Uiso  ? N
   N11        1.0     0.551897     0.210813     0.881574    Uiso  ? N
   N12        1.0     0.434248     0.114838     0.636334    Uiso  ? N
   N13        1.0     0.222658     0.538017     0.380261    Uiso  ? N
   N14        1.0     0.111327     0.430165     0.128089    Uiso  ? N
   N15        1.0     0.892093     0.537637     0.881599    Uiso  ? N
   N16        1.0     0.765793     0.451747     0.635001    Uiso  ? N
   N17        1.0     0.555657     0.540096     0.373914    Uiso  ? N
   N18        1.0     0.441842     0.430165     0.128089    Uiso  ? N
   N19        1.0     0.222665     0.538003     0.874396    Uiso  ? N
   N20        1.0     0.109464     0.427895     0.627263    Uiso  ? N
   N21        1.0     0.887580     0.540096     0.373914    Uiso  ? N
   N22        1.0     0.777332     0.428670     0.121359    Uiso  ? N
   N23        1.0     0.553604     0.537637     0.881599    Uiso  ? N
   N24        1.0     0.445975     0.427895     0.627263    Uiso  ? N
   N25        1.0     0.230770     0.855169     0.375342    Uiso  ? N
   N26        1.0     0.113033     0.757267     0.126257    Uiso  ? N
   N27        1.0     0.893054     0.868571     0.881322    Uiso  ? N
   N28        1.0     0.796901     0.750822     0.634969    Uiso  ? N
   N29        1.0     0.555254     0.872825     0.374554    Uiso  ? N
   N30        1.0     0.446002     0.761637     0.121267    Uiso  ? N
   N31        1.0     0.221708     0.868571     0.881322    Uiso  ? N
   N32        1.0     0.111272     0.760789     0.629565    Uiso  ? N
   N33        1.0     0.897394     0.855169     0.375342    Uiso  ? N
   N34        1.0     0.775694     0.761637     0.121267    Uiso  ? N
   N35        1.0     0.555390     0.872552     0.865034    Uiso  ? N
   N36        1.0     0.435610     0.750822     0.634969    Uiso  ? N
