
#======================================================================
# CRYSTAL DATA
#----------------------------------------------------------------------
data_VESTA_phase_1

_chemical_name_common                  'Mg   Al   Hf   N                      '
_cell_length_a                         9.868625
_cell_length_b                         9.888111
_cell_length_c                         9.033972
_cell_angle_alpha                      90.008163
_cell_angle_beta                       90.000000
_cell_angle_gamma                      60.065178
_cell_volume                           763.948682
_space_group_name_H-M_alt              'P 1'
_space_group_IT_number                 1

loop_
_space_group_symop_operation_xyz
   'x, y, z'

loop_
   _atom_site_label
   _atom_site_occupancy
   _atom_site_fract_x
   _atom_site_fract_y
   _atom_site_fract_z
   _atom_site_adp_type
   _atom_site_U_iso_or_equiv
   _atom_site_type_symbol
   Mg1        1.0     0.116356     0.091178     0.337442    Uiso  ? Mg
   Mg2        1.0     0.775799     0.091178     0.337442    Uiso  ? Mg
   Al1        1.0     0.218562     0.209383     0.091586    Uiso  ? Al
   Al2        1.0     0.774781     0.091562     0.856467    Uiso  ? Al
   Al3        1.0     0.441807     0.099720     0.325761    Uiso  ? Al
   Al4        1.0     0.555388     0.209383     0.091586    Uiso  ? Al
   Al5        1.0     0.116990     0.091562     0.856467    Uiso  ? Al
   Al6        1.0     0.223103     0.209938     0.578947    Uiso  ? Al
   Al7        1.0     0.888788     0.205757     0.096678    Uiso  ? Al
   Al8        1.0     0.438668     0.105997     0.850081    Uiso  ? Al
   Al9        1.0     0.550293     0.209938     0.578947    Uiso  ? Al
   Al10       1.0     0.113279     0.429961     0.335493    Uiso  ? Al
   Al11       1.0     0.222604     0.538125     0.080587    Uiso  ? Al
   Al12       1.0     0.774355     0.434623     0.848457    Uiso  ? Al
   Al13       1.0     0.892004     0.539659     0.583351    Uiso  ? Al
   Al14       1.0     0.440093     0.429961     0.335493    Uiso  ? Al
   Al15       1.0     0.553429     0.537578     0.086521    Uiso  ? Al
   Al16       1.0     0.111335     0.426675     0.834949    Uiso  ? Al
   Al17       1.0     0.222012     0.539310     0.588960    Uiso  ? Al
   Al18       1.0     0.775167     0.432999     0.328541    Uiso  ? Al
   Al19       1.0     0.892326     0.537578     0.086521    Uiso  ? Al
   Al20       1.0     0.445323     0.426675     0.834949    Uiso  ? Al
   Al21       1.0     0.551670     0.539659     0.583351    Uiso  ? Al
   Al22       1.0     0.115316     0.752700     0.332524    Uiso  ? Al
   Al23       1.0     0.219726     0.871371     0.090716    Uiso  ? Al
   Al24       1.0     0.787712     0.756756     0.847896    Uiso  ? Al
   Al25       1.0     0.894726     0.865597     0.580140    Uiso  ? Al
   Al26       1.0     0.444408     0.757843     0.327243    Uiso  ? Al
   Al27       1.0     0.555455     0.872424     0.082951    Uiso  ? Al
   Al28       1.0     0.110955     0.761423     0.837711    Uiso  ? Al
   Al29       1.0     0.223010     0.865598     0.580140    Uiso  ? Al
   Al30       1.0     0.781082     0.757843     0.327243    Uiso  ? Al
   Al31       1.0     0.892236     0.871371     0.090716    Uiso  ? Al
   Al32       1.0     0.438866     0.756756     0.847896    Uiso  ? Al
   Hf1        1.0     0.888318     0.206696     0.599173    Uiso  ? Hf
   Hf2        1.0     0.554700     0.873934     0.604633    Uiso  ? Hf
   N1         1.0     0.228936     0.213032     0.366280    Uiso  ? N
   N2         1.0     0.110458     0.094238     0.102367    Uiso  ? N
   N3         1.0     0.887460     0.208414     0.860808    Uiso  ? N
   N4         1.0     0.768210     0.083153     0.623911    Uiso  ? N
   N5         1.0     0.541365     0.213032     0.366280    Uiso  ? N
   N6         1.0     0.445216     0.092901     0.112216    Uiso  ? N
   N7         1.0     0.220158     0.210530     0.876908    Uiso  ? N
   N8         1.0     0.131971     0.083153     0.623911    Uiso  ? N
   N9         1.0     0.881236     0.220861     0.365068    Uiso  ? N
   N10        1.0     0.778637     0.094238     0.102367    Uiso  ? N
   N11        1.0     0.552645     0.210530     0.876908    Uiso  ? N
   N12        1.0     0.435010     0.113314     0.630698    Uiso  ? N
   N13        1.0     0.222623     0.538087     0.376112    Uiso  ? N
   N14        1.0     0.111181     0.430965     0.122391    Uiso  ? N
   N15        1.0     0.892286     0.537655     0.875257    Uiso  ? N
   N16        1.0     0.766855     0.449622     0.629089    Uiso  ? N
   N17        1.0     0.555626     0.540150     0.368029    Uiso  ? N
   N18        1.0     0.441188     0.430965     0.122391    Uiso  ? N
   N19        1.0     0.222843     0.537647     0.866875    Uiso  ? N
   N20        1.0     0.109479     0.427493     0.620990    Uiso  ? N
   N21        1.0     0.887557     0.540150     0.368029    Uiso  ? N
   N22        1.0     0.776478     0.430377     0.113174    Uiso  ? N
   N23        1.0     0.553392     0.537655     0.875257    Uiso  ? N
   N24        1.0     0.446361     0.427493     0.620990    Uiso  ? N
   N25        1.0     0.230813     0.854775     0.366824    Uiso  ? N
   N26        1.0     0.113561     0.756211     0.119329    Uiso  ? N
   N27        1.0     0.892582     0.869385     0.876493    Uiso  ? N
   N28        1.0     0.795199     0.752074     0.628982    Uiso  ? N
   N29        1.0     0.555204     0.872925     0.364788    Uiso  ? N
   N30        1.0     0.446104     0.760907     0.113806    Uiso  ? N
   N31        1.0     0.221366     0.869385     0.876493    Uiso  ? N
   N32        1.0     0.111018     0.761297     0.624263    Uiso  ? N
   N33        1.0     0.897745     0.854775     0.366824    Uiso  ? N
   N34        1.0     0.776322     0.760907     0.113806    Uiso  ? N
   N35        1.0     0.555453     0.872427     0.863531    Uiso  ? N
   N36        1.0     0.436060     0.752074     0.628982    Uiso  ? N
