
#======================================================================
# CRYSTAL DATA
#----------------------------------------------------------------------
data_VESTA_phase_1

_chemical_name_common                  'Mg   Al   Hf   N                      '
_cell_length_a                         9.952702
_cell_length_b                         9.972569
_cell_length_c                         8.775663
_cell_angle_alpha                      90.008194
_cell_angle_beta                       90.000000
_cell_angle_gamma                      60.065891
_cell_volume                           754.825576
_space_group_name_H-M_alt              'P 1'
_space_group_IT_number                 1

loop_
_space_group_symop_operation_xyz
   'x, y, z'

loop_
   _atom_site_label
   _atom_site_occupancy
   _atom_site_fract_x
   _atom_site_fract_y
   _atom_site_fract_z
   _atom_site_adp_type
   _atom_site_U_iso_or_equiv
   _atom_site_type_symbol
   Mg1        1.0     0.117392     0.090699     0.342098    Uiso  ? Mg
   Mg2        1.0     0.775242     0.090699     0.342098    Uiso  ? Mg
   Al1        1.0     0.218384     0.209143     0.097323    Uiso  ? Al
   Al2        1.0     0.775057     0.091691     0.860115    Uiso  ? Al
   Al3        1.0     0.441198     0.100936     0.329782    Uiso  ? Al
   Al4        1.0     0.555806     0.209143     0.097323    Uiso  ? Al
   Al5        1.0     0.116586     0.091691     0.860115    Uiso  ? Al
   Al6        1.0     0.222711     0.209925     0.584641    Uiso  ? Al
   Al7        1.0     0.888948     0.205438     0.105176    Uiso  ? Al
   Al8        1.0     0.439231     0.104871     0.856465    Uiso  ? Al
   Al9        1.0     0.550697     0.209925     0.584641    Uiso  ? Al
   Al10       1.0     0.113005     0.430103     0.340348    Uiso  ? Al
   Al11       1.0     0.222612     0.538109     0.085870    Uiso  ? Al
   Al12       1.0     0.774902     0.433530     0.854888    Uiso  ? Al
   Al13       1.0     0.892066     0.539515     0.590377    Uiso  ? Al
   Al14       1.0     0.440225     0.430103     0.340348    Uiso  ? Al
   Al15       1.0     0.553514     0.537554     0.091156    Uiso  ? Al
   Al16       1.0     0.111578     0.426544     0.841070    Uiso  ? Al
   Al17       1.0     0.222034     0.539266     0.594625    Uiso  ? Al
   Al18       1.0     0.774678     0.433977     0.332738    Uiso  ? Al
   Al19       1.0     0.892266     0.537554     0.091156    Uiso  ? Al
   Al20       1.0     0.445211     0.426544     0.841070    Uiso  ? Al
   Al21       1.0     0.551752     0.539515     0.590378    Uiso  ? Al
   Al22       1.0     0.115260     0.752814     0.337192    Uiso  ? Al
   Al23       1.0     0.219557     0.871619     0.096419    Uiso  ? Al
   Al24       1.0     0.786382     0.757633     0.854610    Uiso  ? Al
   Al25       1.0     0.894611     0.866093     0.586033    Uiso  ? Al
   Al26       1.0     0.443933     0.757014     0.331562    Uiso  ? Al
   Al27       1.0     0.555410     0.872513     0.091576    Uiso  ? Al
   Al28       1.0     0.110964     0.761404     0.843918    Uiso  ? Al
   Al29       1.0     0.222629     0.866093     0.586033    Uiso  ? Al
   Al30       1.0     0.782387     0.757014     0.331562    Uiso  ? Al
   Al31       1.0     0.892157     0.871619     0.096419    Uiso  ? Al
   Al32       1.0     0.439318     0.757633     0.854610    Uiso  ? Al
   Hf1        1.0     0.888242     0.206849     0.600182    Uiso  ? Hf
   Hf2        1.0     0.554740     0.873854     0.605696    Uiso  ? Hf
   N1         1.0     0.228365     0.213344     0.360613    Uiso  ? N
   N2         1.0     0.110866     0.093907     0.099659    Uiso  ? N
   N3         1.0     0.887581     0.208171     0.859831    Uiso  ? N
   N4         1.0     0.768968     0.083998     0.618459    Uiso  ? N
   N5         1.0     0.541624     0.213344     0.360613    Uiso  ? N
   N6         1.0     0.444877     0.093579     0.107584    Uiso  ? N
   N7         1.0     0.220409     0.209743     0.871375    Uiso  ? N
   N8         1.0     0.130367     0.083998     0.618459    Uiso  ? N
   N9         1.0     0.881449     0.220434     0.356027    Uiso  ? N
   N10        1.0     0.778561     0.093907     0.099659    Uiso  ? N
   N11        1.0     0.553182     0.209743     0.871375    Uiso  ? N
   N12        1.0     0.435801     0.111731     0.624069    Uiso  ? N
   N13        1.0     0.222637     0.538059     0.370734    Uiso  ? N
   N14        1.0     0.111047     0.430861     0.116567    Uiso  ? N
   N15        1.0     0.891803     0.538051     0.869268    Uiso  ? N
   N16        1.0     0.767620     0.448094     0.622839    Uiso  ? N
   N17        1.0     0.555594     0.539793     0.362874    Uiso  ? N
   N18        1.0     0.441425     0.430861     0.116567    Uiso  ? N
   N19        1.0     0.222895     0.537544     0.861790    Uiso  ? N
   N20        1.0     0.109647     0.427603     0.615991    Uiso  ? N
   N21        1.0     0.887946     0.539793     0.362874    Uiso  ? N
   N22        1.0     0.776211     0.430912     0.107683    Uiso  ? N
   N23        1.0     0.553479     0.538051     0.869268    Uiso  ? N
   N24        1.0     0.446083     0.427603     0.615991    Uiso  ? N
   N25        1.0     0.230240     0.855214     0.361012    Uiso  ? N
   N26        1.0     0.113499     0.756335     0.113278    Uiso  ? N
   N27        1.0     0.891898     0.869884     0.870884    Uiso  ? N
   N28        1.0     0.793659     0.752956     0.622269    Uiso  ? N
   N29        1.0     0.555222     0.872890     0.356206    Uiso  ? N
   N30        1.0     0.445812     0.760467     0.108901    Uiso  ? N
   N31        1.0     0.221552     0.869884     0.870884    Uiso  ? N
   N32        1.0     0.111154     0.761026     0.619442    Uiso  ? N
   N33        1.0     0.897880     0.855214     0.361012    Uiso  ? N
   N34        1.0     0.777054     0.760467     0.108901    Uiso  ? N
   N35        1.0     0.555434     0.872465     0.863226    Uiso  ? N
   N36        1.0     0.436718     0.752956     0.622269    Uiso  ? N
