
#======================================================================
# CRYSTAL DATA
#----------------------------------------------------------------------
data_VESTA_phase_1

_chemical_name_common                  'Mg   Al   Hf   N                      '
_cell_length_a                         9.988911
_cell_length_b                         10.011794
_cell_length_c                         8.663472
_cell_angle_alpha                      90.008965
_cell_angle_beta                       90.000000
_cell_angle_gamma                      60.075584
_cell_volume                           750.901410
_space_group_name_H-M_alt              'P 1'
_space_group_IT_number                 1

loop_
_space_group_symop_operation_xyz
   'x, y, z'

loop_
   _atom_site_label
   _atom_site_occupancy
   _atom_site_fract_x
   _atom_site_fract_y
   _atom_site_fract_z
   _atom_site_adp_type
   _atom_site_U_iso_or_equiv
   _atom_site_type_symbol
   Mg1        1.0     0.118736     0.089977     0.349780    Uiso  ? Mg
   Mg2        1.0     0.774620     0.089977     0.349780    Uiso  ? Mg
   Al1        1.0     0.219269     0.208808     0.115497    Uiso  ? Al
   Al2        1.0     0.775374     0.091945     0.863058    Uiso  ? Al
   Al3        1.0     0.439217     0.104899     0.350073    Uiso  ? Al
   Al4        1.0     0.555257     0.208808     0.115497    Uiso  ? Al
   Al5        1.0     0.116014     0.091945     0.863058    Uiso  ? Al
   Al6        1.0     0.221453     0.210233     0.608288    Uiso  ? Al
   Al7        1.0     0.888876     0.205582     0.113441    Uiso  ? Al
   Al8        1.0     0.441046     0.101241     0.870579    Uiso  ? Al
   Al9        1.0     0.551648     0.210233     0.608288    Uiso  ? Al
   Al10       1.0     0.111359     0.429457     0.363152    Uiso  ? Al
   Al11       1.0     0.222130     0.539074     0.115007    Uiso  ? Al
   Al12       1.0     0.775970     0.431394     0.869339    Uiso  ? Al
   Al13       1.0     0.892350     0.539733     0.616802    Uiso  ? Al
   Al14       1.0     0.442517     0.429457     0.363152    Uiso  ? Al
   Al15       1.0     0.554193     0.537244     0.111053    Uiso  ? Al
   Al16       1.0     0.113036     0.427528     0.864544    Uiso  ? Al
   Al17       1.0     0.222616     0.538102     0.614249    Uiso  ? Al
   Al18       1.0     0.773837     0.435659     0.350469    Uiso  ? Al
   Al19       1.0     0.891897     0.537244     0.111053    Uiso  ? Al
   Al20       1.0     0.442769     0.427528     0.864544    Uiso  ? Al
   Al21       1.0     0.551251     0.539733     0.616802    Uiso  ? Al
   Al22       1.0     0.114056     0.755222     0.365338    Uiso  ? Al
   Al23       1.0     0.219257     0.870740     0.114948    Uiso  ? Al
   Al24       1.0     0.782460     0.759717     0.872409    Uiso  ? Al
   Al25       1.0     0.893627     0.867173     0.610172    Uiso  ? Al
   Al26       1.0     0.441842     0.755182     0.349962    Uiso  ? Al
   Al27       1.0     0.554994     0.873346     0.110396    Uiso  ? Al
   Al28       1.0     0.112320     0.758693     0.862482    Uiso  ? Al
   Al29       1.0     0.222534     0.867173     0.610172    Uiso  ? Al
   Al30       1.0     0.786310     0.755182     0.349962    Uiso  ? Al
   Al31       1.0     0.893336     0.870740     0.114948    Uiso  ? Al
   Al32       1.0     0.441156     0.759717     0.872409    Uiso  ? Al
   Hf1        1.0     0.888107     0.207120     0.597979    Uiso  ? Hf
   Hf2        1.0     0.555221     0.872892     0.603046    Uiso  ? Hf
   N1         1.0     0.225406     0.215289     0.345077    Uiso  ? N
   N2         1.0     0.112574     0.092859     0.092406    Uiso  ? N
   N3         1.0     0.887259     0.208815     0.854055    Uiso  ? N
   N4         1.0     0.770320     0.085068     0.608248    Uiso  ? N
   N5         1.0     0.542638     0.215289     0.345077    Uiso  ? N
   N6         1.0     0.444290     0.094754     0.099261    Uiso  ? N
   N7         1.0     0.222922     0.207737     0.847605    Uiso  ? N
   N8         1.0     0.127944     0.085069     0.608248    Uiso  ? N
   N9         1.0     0.881871     0.219591     0.347209    Uiso  ? N
   N10        1.0     0.777901     0.092859     0.092406    Uiso  ? N
   N11        1.0     0.552675     0.207737     0.847605    Uiso  ? N
   N12        1.0     0.436853     0.109627     0.595101    Uiso  ? N
   N13        1.0     0.222677     0.537980     0.346997    Uiso  ? N
   N14        1.0     0.111502     0.429348     0.093472    Uiso  ? N
   N15        1.0     0.889117     0.540054     0.849533    Uiso  ? N
   N16        1.0     0.767436     0.448462     0.597198    Uiso  ? N
   N17        1.0     0.554860     0.537907     0.341119    Uiso  ? N
   N18        1.0     0.442484     0.429348     0.093472    Uiso  ? N
   N19        1.0     0.222869     0.537596     0.843055    Uiso  ? N
   N20        1.0     0.109235     0.429181     0.596878    Uiso  ? N
   N21        1.0     0.890566     0.537907     0.341119    Uiso  ? N
   N22        1.0     0.776469     0.430396     0.096848    Uiso  ? N
   N23        1.0     0.554162     0.540054     0.849533    Uiso  ? N
   N24        1.0     0.444918     0.429181     0.596878    Uiso  ? N
   N25        1.0     0.227420     0.856638     0.344411    Uiso  ? N
   N26        1.0     0.112776     0.757781     0.090943    Uiso  ? N
   N27        1.0     0.890259     0.869056     0.847359    Uiso  ? N
   N28        1.0     0.792775     0.752604     0.593120    Uiso  ? N
   N29        1.0     0.555299     0.872736     0.345072    Uiso  ? N
   N30        1.0     0.444783     0.760936     0.099620    Uiso  ? N
   N31        1.0     0.224019     0.869056     0.847359    Uiso  ? N
   N32        1.0     0.112171     0.758992     0.599167    Uiso  ? N
   N33        1.0     0.899275     0.856638     0.344411    Uiso  ? N
   N34        1.0     0.777615     0.760936     0.099620    Uiso  ? N
   N35        1.0     0.555303     0.872728     0.855886    Uiso  ? N
   N36        1.0     0.437954     0.752605     0.593120    Uiso  ? N
