
#======================================================================
# CRYSTAL DATA
#----------------------------------------------------------------------
data_VESTA_phase_1

_chemical_name_common                  'Mg   Al   Hf   N                      '
_cell_length_a                         9.829593
_cell_length_b                         9.853342
_cell_length_c                         9.159207
_cell_angle_alpha                      90.012520
_cell_angle_beta                       90.000000
_cell_angle_gamma                      60.079704
_cell_volume                           768.875170
_space_group_name_H-M_alt              'P 1'
_space_group_IT_number                 1

loop_
_space_group_symop_operation_xyz
   'x, y, z'

loop_
   _atom_site_label
   _atom_site_occupancy
   _atom_site_fract_x
   _atom_site_fract_y
   _atom_site_fract_z
   _atom_site_adp_type
   _atom_site_U_iso_or_equiv
   _atom_site_type_symbol
   Mg1        1.0     0.121188     0.088708     0.357638    Uiso  ? Mg
   Mg2        1.0     0.773437     0.088708     0.357638    Uiso  ? Mg
   Al1        1.0     0.220197     0.209414     0.125402    Uiso  ? Al
   Al2        1.0     0.776973     0.093683     0.872901    Uiso  ? Al
   Al3        1.0     0.437458     0.108418     0.364578    Uiso  ? Al
   Al4        1.0     0.553722     0.209414     0.125402    Uiso  ? Al
   Al5        1.0     0.112677     0.093683     0.872901    Uiso  ? Al
   Al6        1.0     0.221463     0.210122     0.624308    Uiso  ? Al
   Al7        1.0     0.888227     0.206880     0.131027    Uiso  ? Al
   Al8        1.0     0.442727     0.097879     0.880293    Uiso  ? Al
   Al9        1.0     0.551748     0.210122     0.624308    Uiso  ? Al
   Al10       1.0     0.111388     0.428733     0.374375    Uiso  ? Al
   Al11       1.0     0.222024     0.539286     0.127246    Uiso  ? Al
   Al12       1.0     0.777323     0.428688     0.878618    Uiso  ? Al
   Al13       1.0     0.892459     0.539999     0.628415    Uiso  ? Al
   Al14       1.0     0.443212     0.428733     0.374375    Uiso  ? Al
   Al15       1.0     0.554497     0.537191     0.121715    Uiso  ? Al
   Al16       1.0     0.112860     0.428268     0.874559    Uiso  ? Al
   Al17       1.0     0.222713     0.537907     0.623004    Uiso  ? Al
   Al18       1.0     0.772501     0.438332     0.365024    Uiso  ? Al
   Al19       1.0     0.891645     0.537191     0.121715    Uiso  ? Al
   Al20       1.0     0.442205     0.428268     0.874559    Uiso  ? Al
   Al21       1.0     0.550875     0.539999     0.628415    Uiso  ? Al
   Al22       1.0     0.113595     0.756143     0.376470    Uiso  ? Al
   Al23       1.0     0.220009     0.869332     0.124377    Uiso  ? Al
   Al24       1.0     0.779517     0.760775     0.881487    Uiso  ? Al
   Al25       1.0     0.893436     0.867180     0.625284    Uiso  ? Al
   Al26       1.0     0.440043     0.754135     0.363209    Uiso  ? Al
   Al27       1.0     0.554965     0.873404     0.127412    Uiso  ? Al
   Al28       1.0     0.112719     0.757896     0.872551    Uiso  ? Al
   Al29       1.0     0.222718     0.867180     0.625284    Uiso  ? Al
   Al30       1.0     0.789155     0.754135     0.363209    Uiso  ? Al
   Al31       1.0     0.893993     0.869332     0.124377    Uiso  ? Al
   Al32       1.0     0.443041     0.760775     0.881487    Uiso  ? Al
   Hf1        1.0     0.888641     0.206051     0.597055    Uiso  ? Hf
   Hf2        1.0     0.555209     0.872915     0.604083    Uiso  ? Hf
   N1         1.0     0.225102     0.216887     0.331119    Uiso  ? N
   N2         1.0     0.110981     0.093860     0.087192    Uiso  ? N
   N3         1.0     0.887461     0.208412     0.838053    Uiso  ? N
   N4         1.0     0.769164     0.083466     0.595837    Uiso  ? N
   N5         1.0     0.541344     0.216887     0.331119    Uiso  ? N
   N6         1.0     0.445174     0.092985     0.088624    Uiso  ? N
   N7         1.0     0.223327     0.206922     0.837055    Uiso  ? N
   N8         1.0     0.130703     0.083466     0.595837    Uiso  ? N
   N9         1.0     0.881449     0.220436     0.346365    Uiso  ? N
   N10        1.0     0.778493     0.093860     0.087192    Uiso  ? N
   N11        1.0     0.553084     0.206922     0.837055    Uiso  ? N
   N12        1.0     0.435175     0.112982     0.580478    Uiso  ? N
   N13        1.0     0.222571     0.538191     0.337842    Uiso  ? N
   N14        1.0     0.111515     0.429762     0.082248    Uiso  ? N
   N15        1.0     0.888246     0.540321     0.838638    Uiso  ? N
   N16        1.0     0.765786     0.451761     0.582589    Uiso  ? N
   N17        1.0     0.554406     0.537558     0.329976    Uiso  ? N
   N18        1.0     0.442056     0.429762     0.082248    Uiso  ? N
   N19        1.0     0.222859     0.537616     0.831542    Uiso  ? N
   N20        1.0     0.109187     0.428539     0.586374    Uiso  ? N
   N21        1.0     0.891370     0.537558     0.329976    Uiso  ? N
   N22        1.0     0.777501     0.428332     0.087333    Uiso  ? N
   N23        1.0     0.554767     0.540321     0.838638    Uiso  ? N
   N24        1.0     0.445607     0.428539     0.586374    Uiso  ? N
   N25        1.0     0.227116     0.855128     0.330550    Uiso  ? N
   N26        1.0     0.113031     0.757272     0.079628    Uiso  ? N
   N27        1.0     0.889314     0.869571     0.837485    Uiso  ? N
   N28        1.0     0.795978     0.751176     0.579173    Uiso  ? N
   N29        1.0     0.555242     0.872850     0.344568    Uiso  ? N
   N30        1.0     0.445882     0.761511     0.089847    Uiso  ? N
   N31        1.0     0.224449     0.869571     0.837485    Uiso  ? N
   N32        1.0     0.111822     0.759689     0.588616    Uiso  ? N
   N33        1.0     0.901089     0.855128     0.330550    Uiso  ? N
   N34        1.0     0.775940     0.761511     0.089847    Uiso  ? N
   N35        1.0     0.555315     0.872703     0.838923    Uiso  ? N
   N36        1.0     0.436179     0.751176     0.579173    Uiso  ? N
