
#======================================================================
# CRYSTAL DATA
#----------------------------------------------------------------------
data_VESTA_phase_1

_chemical_name_common                  'Mg   Al   Hf   N                      '
_cell_length_a                         9.824958
_cell_length_b                         9.844121
_cell_length_c                         9.168821
_cell_angle_alpha                      90.007690
_cell_angle_beta                       90.000000
_cell_angle_gamma                      60.064381
_cell_volume                           768.481035
_space_group_name_H-M_alt              'P 1'
_space_group_IT_number                 1

loop_
_space_group_symop_operation_xyz
   'x, y, z'

loop_
   _atom_site_label
   _atom_site_occupancy
   _atom_site_fract_x
   _atom_site_fract_y
   _atom_site_fract_z
   _atom_site_adp_type
   _atom_site_U_iso_or_equiv
   _atom_site_type_symbol
   Mg1        1.0     0.115564     0.091583     0.334863    Uiso  ? Mg
   Mg2        1.0     0.776187     0.091583     0.334863    Uiso  ? Mg
   Al1        1.0     0.218790     0.209278     0.088820    Uiso  ? Al
   Al2        1.0     0.774480     0.091314     0.853497    Uiso  ? Al
   Al3        1.0     0.441963     0.099408     0.324609    Uiso  ? Al
   Al4        1.0     0.555266     0.209278     0.088820    Uiso  ? Al
   Al5        1.0     0.117539     0.091314     0.853497    Uiso  ? Al
   Al6        1.0     0.223132     0.210051     0.576961    Uiso  ? Al
   Al7        1.0     0.888724     0.205886     0.090383    Uiso  ? Al
   Al8        1.0     0.438482     0.106369     0.846631    Uiso  ? Al
   Al9        1.0     0.550149     0.210052     0.576961    Uiso  ? Al
   Al10       1.0     0.113360     0.429690     0.333480    Uiso  ? Al
   Al11       1.0     0.222565     0.538203     0.078986    Uiso  ? Al
   Al12       1.0     0.773972     0.435388     0.845088    Uiso  ? Al
   Al13       1.0     0.892121     0.539649     0.580613    Uiso  ? Al
   Al14       1.0     0.440283     0.429690     0.333480    Uiso  ? Al
   Al15       1.0     0.553529     0.537648     0.084781    Uiso  ? Al
   Al16       1.0     0.111273     0.426901     0.832748    Uiso  ? Al
   Al17       1.0     0.222036     0.539262     0.586238    Uiso  ? Al
   Al18       1.0     0.775569     0.432195     0.327118    Uiso  ? Al
   Al19       1.0     0.892157     0.537648     0.084781    Uiso  ? Al
   Al20       1.0     0.445159     0.426901     0.832748    Uiso  ? Al
   Al21       1.0     0.551563     0.539649     0.580613    Uiso  ? Al
   Al22       1.0     0.115176     0.752982     0.330893    Uiso  ? Al
   Al23       1.0     0.219835     0.871348     0.088064    Uiso  ? Al
   Al24       1.0     0.788177     0.756374     0.844659    Uiso  ? Al
   Al25       1.0     0.894800     0.865423     0.578067    Uiso  ? Al
   Al26       1.0     0.444442     0.758232     0.325854    Uiso  ? Al
   Al27       1.0     0.555438     0.872458     0.079453    Uiso  ? Al
   Al28       1.0     0.111078     0.761177     0.835148    Uiso  ? Al
   Al29       1.0     0.223111     0.865423     0.578067    Uiso  ? Al
   Al30       1.0     0.780659     0.758232     0.325854    Uiso  ? Al
   Al31       1.0     0.892150     0.871348     0.088064    Uiso  ? Al
   Al32       1.0     0.438782     0.756374     0.844659    Uiso  ? Al
   Hf1        1.0     0.888360     0.206613     0.598549    Uiso  ? Hf
   Hf2        1.0     0.554708     0.873918     0.603502    Uiso  ? Hf
   N1         1.0     0.229024     0.212894     0.369182    Uiso  ? N
   N2         1.0     0.110261     0.094402     0.103958    Uiso  ? N
   N3         1.0     0.887366     0.208601     0.861733    Uiso  ? N
   N4         1.0     0.767841     0.082752     0.627021    Uiso  ? N
   N5         1.0     0.541415     0.212894     0.369182    Uiso  ? N
   N6         1.0     0.445327     0.092679     0.114851    Uiso  ? N
   N7         1.0     0.220239     0.210762     0.878837    Uiso  ? N
   N8         1.0     0.132740     0.082752     0.627021    Uiso  ? N
   N9         1.0     0.881118     0.221098     0.370606    Uiso  ? N
   N10        1.0     0.778670     0.094402     0.103958    Uiso  ? N
   N11        1.0     0.552333     0.210762     0.878837    Uiso  ? N
   N12        1.0     0.434690     0.113954     0.633020    Uiso  ? N
   N13        1.0     0.222633     0.538067     0.377833    Uiso  ? N
   N14        1.0     0.111230     0.430798     0.124581    Uiso  ? N
   N15        1.0     0.892324     0.537588     0.877661    Uiso  ? N
   N16        1.0     0.766475     0.450384     0.631475    Uiso  ? N
   N17        1.0     0.555642     0.540193     0.370161    Uiso  ? N
   N18        1.0     0.441305     0.430798     0.124581    Uiso  ? N
   N19        1.0     0.222791     0.537752     0.869438    Uiso  ? N
   N20        1.0     0.109444     0.427578     0.623209    Uiso  ? N
   N21        1.0     0.887498     0.540193     0.370161    Uiso  ? N
   N22        1.0     0.776710     0.429914     0.116034    Uiso  ? N
   N23        1.0     0.553422     0.537588     0.877661    Uiso  ? N
   N24        1.0     0.446312     0.427578     0.623209    Uiso  ? N
   N25        1.0     0.230905     0.854791     0.369721    Uiso  ? N
   N26        1.0     0.113450     0.756432     0.121889    Uiso  ? N
   N27        1.0     0.892843     0.869059     0.878470    Uiso  ? N
   N28        1.0     0.795873     0.751622     0.631375    Uiso  ? N
   N29        1.0     0.555211     0.872912     0.368605    Uiso  ? N
   N30        1.0     0.446150     0.761165     0.116354    Uiso  ? N
   N31        1.0     0.221432     0.869059     0.878470    Uiso  ? N
   N32        1.0     0.111061     0.761211     0.626190    Uiso  ? N
   N33        1.0     0.897637     0.854791     0.369721    Uiso  ? N
   N34        1.0     0.776018     0.761165     0.116354    Uiso  ? N
   N35        1.0     0.555441     0.872451     0.863791    Uiso  ? N
   N36        1.0     0.435839     0.751622     0.631375    Uiso  ? N
