
#======================================================================
# CRYSTAL DATA
#----------------------------------------------------------------------
data_VESTA_phase_1

_chemical_name_common                  'Mg   Al   Hf   N                      '
_cell_length_a                         9.911263
_cell_length_b                         9.930948
_cell_length_c                         8.902472
_cell_angle_alpha                      90.008377
_cell_angle_beta                       90.000000
_cell_angle_gamma                      60.065556
_cell_volume                           759.359646
_space_group_name_H-M_alt              'P 1'
_space_group_IT_number                 1

loop_
_space_group_symop_operation_xyz
   'x, y, z'

loop_
   _atom_site_label
   _atom_site_occupancy
   _atom_site_fract_x
   _atom_site_fract_y
   _atom_site_fract_z
   _atom_site_adp_type
   _atom_site_U_iso_or_equiv
   _atom_site_type_symbol
   Mg1        1.0     0.116967     0.090884     0.339896    Uiso  ? Mg
   Mg2        1.0     0.775483     0.090883     0.339896    Uiso  ? Mg
   Al1        1.0     0.218410     0.209338     0.094435    Uiso  ? Al
   Al2        1.0     0.774980     0.091691     0.858700    Uiso  ? Al
   Al3        1.0     0.441549     0.100235     0.327437    Uiso  ? Al
   Al4        1.0     0.555585     0.209338     0.094435    Uiso  ? Al
   Al5        1.0     0.116663     0.091691     0.858700    Uiso  ? Al
   Al6        1.0     0.222966     0.209895     0.581462    Uiso  ? Al
   Al7        1.0     0.888869     0.205595     0.101843    Uiso  ? Al
   Al8        1.0     0.438927     0.105479     0.853428    Uiso  ? Al
   Al9        1.0     0.550473     0.209895     0.581462    Uiso  ? Al
   Al10       1.0     0.113167     0.430108     0.337755    Uiso  ? Al
   Al11       1.0     0.222623     0.538088     0.082802    Uiso  ? Al
   Al12       1.0     0.774676     0.433981     0.851803    Uiso  ? Al
   Al13       1.0     0.891984     0.539614     0.586574    Uiso  ? Al
   Al14       1.0     0.440059     0.430108     0.337755    Uiso  ? Al
   Al15       1.0     0.553422     0.537538     0.088609    Uiso  ? Al
   Al16       1.0     0.111433     0.426544     0.837679    Uiso  ? Al
   Al17       1.0     0.222008     0.539317     0.591766    Uiso  ? Al
   Al18       1.0     0.774864     0.433604     0.330389    Uiso  ? Al
   Al19       1.0     0.892373     0.537538     0.088609    Uiso  ? Al
   Al20       1.0     0.445357     0.426544     0.837679    Uiso  ? Al
   Al21       1.0     0.551736     0.539614     0.586574    Uiso  ? Al
   Al22       1.0     0.115352     0.752629     0.334564    Uiso  ? Al
   Al23       1.0     0.219619     0.871483     0.093504    Uiso  ? Al
   Al24       1.0     0.787093     0.757190     0.851264    Uiso  ? Al
   Al25       1.0     0.894667     0.865818     0.582756    Uiso  ? Al
   Al26       1.0     0.444237     0.757428     0.329096    Uiso  ? Al
   Al27       1.0     0.555445     0.872444     0.087086    Uiso  ? Al
   Al28       1.0     0.110907     0.761520     0.840636    Uiso  ? Al
   Al29       1.0     0.222848     0.865818     0.582756    Uiso  ? Al
   Al30       1.0     0.781668     0.757428     0.329096    Uiso  ? Al
   Al31       1.0     0.892232     0.871483     0.093504    Uiso  ? Al
   Al32       1.0     0.439051     0.757190     0.851264    Uiso  ? Al
   Hf1        1.0     0.888277     0.206780     0.599759    Uiso  ? Hf
   Hf2        1.0     0.554711     0.873912     0.605369    Uiso  ? Hf
   N1         1.0     0.228717     0.213180     0.363400    Uiso  ? N
   N2         1.0     0.110633     0.094087     0.100954    Uiso  ? N
   N3         1.0     0.887543     0.208247     0.860101    Uiso  ? N
   N4         1.0     0.768582     0.083571     0.620978    Uiso  ? N
   N5         1.0     0.541436     0.213180     0.363400    Uiso  ? N
   N6         1.0     0.445060     0.093213     0.109753    Uiso  ? N
   N7         1.0     0.220205     0.210179     0.874460    Uiso  ? N
   N8         1.0     0.131180     0.083571     0.620978    Uiso  ? N
   N9         1.0     0.881347     0.220640     0.360065    Uiso  ? N
   N10        1.0     0.778613     0.094087     0.100954    Uiso  ? N
   N11        1.0     0.552949     0.210179     0.874460    Uiso  ? N
   N12        1.0     0.435384     0.112565     0.627745    Uiso  ? N
   N13        1.0     0.222623     0.538088     0.373822    Uiso  ? N
   N14        1.0     0.111123     0.430994     0.119759    Uiso  ? N
   N15        1.0     0.892117     0.537804     0.872482    Uiso  ? N
   N16        1.0     0.767243     0.448847     0.626220    Uiso  ? N
   N17        1.0     0.555613     0.540018     0.365625    Uiso  ? N
   N18        1.0     0.441216     0.430994     0.119759    Uiso  ? N
   N19        1.0     0.222881     0.537572     0.864309    Uiso  ? N
   N20        1.0     0.109547     0.427492     0.618603    Uiso  ? N
   N21        1.0     0.887702     0.540018     0.365625    Uiso  ? N
   N22        1.0     0.776322     0.430689     0.110335    Uiso  ? N
   N23        1.0     0.553412     0.537804     0.872482    Uiso  ? N
   N24        1.0     0.446294     0.427492     0.618603    Uiso  ? N
   N25        1.0     0.230591     0.854915     0.363903    Uiso  ? N
   N26        1.0     0.113584     0.756166     0.116463    Uiso  ? N
   N27        1.0     0.892254     0.869685     0.874006    Uiso  ? N
   N28        1.0     0.794450     0.752530     0.625991    Uiso  ? N
   N29        1.0     0.555209     0.872916     0.360555    Uiso  ? N
   N30        1.0     0.445988     0.760665     0.111283    Uiso  ? N
   N31        1.0     0.221395     0.869685     0.874006    Uiso  ? N
   N32        1.0     0.111042     0.761250     0.622057    Uiso  ? N
   N33        1.0     0.897827     0.854915     0.363903    Uiso  ? N
   N34        1.0     0.776680     0.760665     0.111283    Uiso  ? N
   N35        1.0     0.555450     0.872433     0.863375    Uiso  ? N
   N36        1.0     0.436353     0.752530     0.625991    Uiso  ? N
