
#======================================================================
# CRYSTAL DATA
#----------------------------------------------------------------------
data_VESTA_phase_1

_chemical_name_common                  'Mg   Al   Hf   N '
_cell_length_a                         9.516994
_cell_length_b                         9.529132
_cell_length_c                         10.070339
_cell_angle_alpha                      90.015762
_cell_angle_beta                       90.000000
_cell_angle_gamma                      60.042130
_cell_volume                           791.247000
_space_group_name_H-M_alt              'P 1'
_space_group_IT_number                 1

loop_
_space_group_symop_operation_xyz
   'x, y, z'

loop_
   _atom_site_label
   _atom_site_occupancy
   _atom_site_fract_x
   _atom_site_fract_y
   _atom_site_fract_z
   _atom_site_adp_type
   _atom_site_U_iso_or_equiv
   _atom_site_type_symbol
   Mg1        1.0     0.112577     0.093493     0.292411    Uiso  ? Mg
   Mg2        1.0     0.777263     0.093493     0.292411    Uiso  ? Mg
   Al1        1.0     0.220221     0.207158     0.045465    Uiso  ? Al
   Al2        1.0     0.773762     0.090432     0.803239    Uiso  ? Al
   Al3        1.0     0.440499     0.102336     0.291667    Uiso  ? Al
   Al4        1.0     0.555954     0.207158     0.045465    Uiso  ? Al
   Al5        1.0     0.119139     0.090432     0.803239    Uiso  ? Al
   Al6        1.0     0.222896     0.211571     0.542295    Uiso  ? Al
   Al7        1.0     0.889003     0.205327     0.039028    Uiso  ? Al
   Al8        1.0     0.440749     0.101836     0.801583    Uiso  ? Al
   Al9        1.0     0.548866     0.211571     0.542295    Uiso  ? Al
   Al10       1.0     0.113406     0.427122     0.296212    Uiso  ? Al
   Al11       1.0     0.222133     0.539067     0.046514    Uiso  ? Al
   Al12       1.0     0.773673     0.435987     0.800642    Uiso  ? Al
   Al13       1.0     0.893778     0.539178     0.542237    Uiso  ? Al
   Al14       1.0     0.442805     0.427122     0.296212    Uiso  ? Al
   Al15       1.0     0.554877     0.537932     0.047549    Uiso  ? Al
   Al16       1.0     0.111259     0.428497     0.796481    Uiso  ? Al
   Al17       1.0     0.222255     0.538823     0.544298    Uiso  ? Al
   Al18       1.0     0.776981     0.429371     0.293209    Uiso  ? Al
   Al19       1.0     0.890525     0.537932     0.047550    Uiso  ? Al
   Al20       1.0     0.443577     0.428497     0.796481    Uiso  ? Al
   Al21       1.0     0.550378     0.539178     0.542237    Uiso  ? Al
   Al22       1.0     0.113071     0.757191     0.296496    Uiso  ? Al
   Al23       1.0     0.219830     0.872926     0.045345    Uiso  ? Al
   Al24       1.0     0.784353     0.757216     0.801938    Uiso  ? Al
   Al25       1.0     0.895485     0.864274     0.543264    Uiso  ? Al
   Al26       1.0     0.441529     0.758908     0.290926    Uiso  ? Al
   Al27       1.0     0.555049     0.873236     0.044749    Uiso  ? Al
   Al28       1.0     0.112018     0.759297     0.796450    Uiso  ? Al
   Al29       1.0     0.223575     0.864274     0.543264    Uiso  ? Al
   Al30       1.0     0.782896     0.758908     0.290926    Uiso  ? Al
   Al31       1.0     0.890577     0.872926     0.045345    Uiso  ? Al
   Al32       1.0     0.441765     0.757216     0.801938    Uiso  ? Al
   Hf1        1.0     0.888725     0.205883     0.559068    Uiso  ? Hf
   Hf2        1.0     0.554925     0.873484     0.552674    Uiso  ? Hf
   N1         1.0     0.228236     0.212379     0.356745    Uiso  ? N
   N2         1.0     0.109576     0.095274     0.086009    Uiso  ? N
   N3         1.0     0.887904     0.207524     0.838591    Uiso  ? N
   N4         1.0     0.766412     0.081791     0.609502    Uiso  ? N
   N5         1.0     0.542718     0.212379     0.356745    Uiso  ? N
   N6         1.0     0.444160     0.095014     0.100447    Uiso  ? N
   N7         1.0     0.221775     0.209225     0.855168    Uiso  ? N
   N8         1.0     0.135131     0.081790     0.609502    Uiso  ? N
   N9         1.0     0.880971     0.221392     0.360678    Uiso  ? N
   N10        1.0     0.778483     0.095274     0.086009    Uiso  ? N
   N11        1.0     0.552333     0.209225     0.855168    Uiso  ? N
   N12        1.0     0.435496     0.112341     0.611983    Uiso  ? N
   N13        1.0     0.222573     0.538187     0.354827    Uiso  ? N
   N14        1.0     0.111344     0.428394     0.104821    Uiso  ? N
   N15        1.0     0.890831     0.537977     0.857579    Uiso  ? N
   N16        1.0     0.765949     0.451435     0.610072    Uiso  ? N
   N17        1.0     0.555396     0.539931     0.352283    Uiso  ? N
   N18        1.0     0.443596     0.428394     0.104821    Uiso  ? N
   N19        1.0     0.222409     0.538515     0.854562    Uiso  ? N
   N20        1.0     0.109968     0.428866     0.605300    Uiso  ? N
   N21        1.0     0.888007     0.539931     0.352283    Uiso  ? N
   N22        1.0     0.777895     0.427543     0.100869    Uiso  ? N
   N23        1.0     0.554525     0.537977     0.857579    Uiso  ? N
   N24        1.0     0.444499     0.428867     0.605300    Uiso  ? N
   N25        1.0     0.229971     0.856683     0.357246    Uiso  ? N
   N26        1.0     0.111625     0.760082     0.104374    Uiso  ? N
   N27        1.0     0.892025     0.868777     0.855061    Uiso  ? N
   N28        1.0     0.794745     0.751205     0.611258    Uiso  ? N
   N29        1.0     0.555394     0.872546     0.345464    Uiso  ? N
   N30        1.0     0.444218     0.761555     0.100583    Uiso  ? N
   N31        1.0     0.222531     0.868777     0.855061    Uiso  ? N
   N32        1.0     0.111937     0.759460     0.606593    Uiso  ? N
   N33        1.0     0.896680     0.856683     0.357246    Uiso  ? N
   N34        1.0     0.777560     0.761555     0.100583    Uiso  ? N
   N35        1.0     0.555369     0.872595     0.847323    Uiso  ? N
   N36        1.0     0.437384     0.751205     0.611258    Uiso  ? N
