
#======================================================================
# CRYSTAL DATA
#----------------------------------------------------------------------
data_VESTA_phase_1

_chemical_name_common                  'Mg   Al   Hf   N                      '
_cell_length_a                         9.526278
_cell_length_b                         9.547462
_cell_length_c                         10.043274
_cell_angle_alpha                      90.031563
_cell_angle_beta                       90.000000
_cell_angle_gamma                      60.073391
_cell_volume                           791.658332
_space_group_name_H-M_alt              'P 1'
_space_group_IT_number                 1

loop_
_space_group_symop_operation_xyz
   'x, y, z'

loop_
   _atom_site_label
   _atom_site_occupancy
   _atom_site_fract_x
   _atom_site_fract_y
   _atom_site_fract_z
   _atom_site_adp_type
   _atom_site_U_iso_or_equiv
   _atom_site_type_symbol
   Mg1        1.0     0.120118     0.089465     0.382786    Uiso  ? Mg
   Mg2        1.0     0.773751     0.089465     0.382786    Uiso  ? Mg
   Al1        1.0     0.221608     0.208053     0.142108    Uiso  ? Al
   Al2        1.0     0.777195     0.093623     0.895251    Uiso  ? Al
   Al3        1.0     0.437934     0.107465     0.384183    Uiso  ? Al
   Al4        1.0     0.553672     0.208053     0.142108    Uiso  ? Al
   Al5        1.0     0.112515     0.093623     0.895251    Uiso  ? Al
   Al6        1.0     0.221474     0.211147     0.644895    Uiso  ? Al
   Al7        1.0     0.887971     0.207390     0.151391    Uiso  ? Al
   Al8        1.0     0.443106     0.097121     0.896700    Uiso  ? Al
   Al9        1.0     0.550713     0.211147     0.644895    Uiso  ? Al
   Al10       1.0     0.112277     0.427137     0.388918    Uiso  ? Al
   Al11       1.0     0.222097     0.539140     0.144079    Uiso  ? Al
   Al12       1.0     0.777025     0.429283     0.895406    Uiso  ? Al
   Al13       1.0     0.894052     0.539596     0.643071    Uiso  ? Al
   Al14       1.0     0.443920     0.427137     0.388918    Uiso  ? Al
   Al15       1.0     0.555093     0.538238     0.141411    Uiso  ? Al
   Al16       1.0     0.111730     0.428928     0.892896    Uiso  ? Al
   Al17       1.0     0.222479     0.538376     0.640005    Uiso  ? Al
   Al18       1.0     0.773600     0.436134     0.385017    Uiso  ? Al
   Al19       1.0     0.890002     0.538238     0.141411    Uiso  ? Al
   Al20       1.0     0.442675     0.428928     0.892896    Uiso  ? Al
   Al21       1.0     0.549686     0.539595     0.643071    Uiso  ? Al
   Al22       1.0     0.112789     0.757755     0.389214    Uiso  ? Al
   Al23       1.0     0.221802     0.869517     0.141527    Uiso  ? Al
   Al24       1.0     0.779889     0.759666     0.896499    Uiso  ? Al
   Al25       1.0     0.894977     0.866500     0.645129    Uiso  ? Al
   Al26       1.0     0.439565     0.756268     0.384745    Uiso  ? Al
   Al27       1.0     0.555206     0.872922     0.145849    Uiso  ? Al
   Al28       1.0     0.112500     0.758333     0.892858    Uiso  ? Al
   Al29       1.0     0.221857     0.866499     0.645129    Uiso  ? Al
   Al30       1.0     0.787501     0.756268     0.384745    Uiso  ? Al
   Al31       1.0     0.892015     0.869517     0.141527    Uiso  ? Al
   Al32       1.0     0.443779     0.759666     0.896499    Uiso  ? Al
   Hf1        1.0     0.888695     0.205943     0.624974    Uiso  ? Hf
   Hf2        1.0     0.554751     0.873833     0.627648    Uiso  ? Hf
   N1         1.0     0.226339     0.215667     0.327043    Uiso  ? N
   N2         1.0     0.110627     0.094199     0.086380    Uiso  ? N
   N3         1.0     0.888223     0.206888     0.837492    Uiso  ? N
   N4         1.0     0.767788     0.082431     0.593361    Uiso  ? N
   N5         1.0     0.541327     0.215667     0.327043    Uiso  ? N
   N6         1.0     0.445507     0.092319     0.084701    Uiso  ? N
   N7         1.0     0.222810     0.206635     0.836440    Uiso  ? N
   N8         1.0     0.133116     0.082430     0.593361    Uiso  ? N
   N9         1.0     0.881458     0.220419     0.341557    Uiso  ? N
   N10        1.0     0.778508     0.094199     0.086380    Uiso  ? N
   N11        1.0     0.553888     0.206635     0.836440    Uiso  ? N
   N12        1.0     0.433962     0.115409     0.578554    Uiso  ? N
   N13        1.0     0.222563     0.538208     0.335161    Uiso  ? N
   N14        1.0     0.110609     0.429665     0.081862    Uiso  ? N
   N15        1.0     0.888561     0.539486     0.834108    Uiso  ? N
   N16        1.0     0.765439     0.452455     0.579989    Uiso  ? N
   N17        1.0     0.554358     0.539000     0.330802    Uiso  ? N
   N18        1.0     0.443060     0.429665     0.081862    Uiso  ? N
   N19        1.0     0.222514     0.538305     0.831237    Uiso  ? N
   N20        1.0     0.110504     0.427539     0.583522    Uiso  ? N
   N21        1.0     0.889975     0.539000     0.330802    Uiso  ? N
   N22        1.0     0.777585     0.428163     0.084571    Uiso  ? N
   N23        1.0     0.555286     0.539486     0.834108    Uiso  ? N
   N24        1.0     0.445290     0.427539     0.583522    Uiso  ? N
   N25        1.0     0.228310     0.855292     0.326934    Uiso  ? N
   N26        1.0     0.112497     0.758340     0.080661    Uiso  ? N
   N27        1.0     0.889524     0.870242     0.836536    Uiso  ? N
   N28        1.0     0.797150     0.751593     0.578181    Uiso  ? N
   N29        1.0     0.555086     0.873161     0.344739    Uiso  ? N
   N30        1.0     0.446402     0.761050     0.085320    Uiso  ? N
   N31        1.0     0.223567     0.870242     0.836536    Uiso  ? N
   N32        1.0     0.111593     0.760147     0.584426    Uiso  ? N
   N33        1.0     0.899731     0.855292     0.326934    Uiso  ? N
   N34        1.0     0.775882     0.761050     0.085320    Uiso  ? N
   N35        1.0     0.555392     0.872550     0.836904    Uiso  ? N
   N36        1.0     0.434590     0.751593     0.578181    Uiso  ? N
