
#======================================================================
# CRYSTAL DATA
#----------------------------------------------------------------------
data_VESTA_phase_1

_chemical_name_common                  'Mg   Al   Hf   N                      '
_cell_length_a                         9.913071
_cell_length_b                         9.936387
_cell_length_c                         8.899194
_cell_angle_alpha                      90.010750
_cell_angle_beta                       90.000000
_cell_angle_gamma                      60.077599
_cell_volume                           759.726100
_space_group_name_H-M_alt              'P 1'
_space_group_IT_number                 1

loop_
_space_group_symop_operation_xyz
   'x, y, z'

loop_
   _atom_site_label
   _atom_site_occupancy
   _atom_site_fract_x
   _atom_site_fract_y
   _atom_site_fract_z
   _atom_site_adp_type
   _atom_site_U_iso_or_equiv
   _atom_site_type_symbol
   Mg1        1.0     0.119825     0.089378     0.353339    Uiso  ? Mg
   Mg2        1.0     0.774130     0.089378     0.353339    Uiso  ? Mg
   Al1        1.0     0.219587     0.209290     0.121474    Uiso  ? Al
   Al2        1.0     0.776137     0.092821     0.867444    Uiso  ? Al
   Al3        1.0     0.438382     0.106570     0.357740    Uiso  ? Al
   Al4        1.0     0.554456     0.209290     0.121474    Uiso  ? Al
   Al5        1.0     0.114375     0.092821     0.867444    Uiso  ? Al
   Al6        1.0     0.221537     0.210139     0.617159    Uiso  ? Al
   Al7        1.0     0.888590     0.206154     0.122077    Uiso  ? Al
   Al8        1.0     0.441885     0.099563     0.876466    Uiso  ? Al
   Al9        1.0     0.551657     0.210139     0.617159    Uiso  ? Al
   Al10       1.0     0.111208     0.429188     0.369838    Uiso  ? Al
   Al11       1.0     0.222058     0.539218     0.122069    Uiso  ? Al
   Al12       1.0     0.776696     0.429941     0.874806    Uiso  ? Al
   Al13       1.0     0.892250     0.539992     0.623701    Uiso  ? Al
   Al14       1.0     0.442938     0.429188     0.369838    Uiso  ? Al
   Al15       1.0     0.554306     0.537042     0.116909    Uiso  ? Al
   Al16       1.0     0.113132     0.427862     0.870060    Uiso  ? Al
   Al17       1.0     0.222693     0.537948     0.619138    Uiso  ? Al
   Al18       1.0     0.773166     0.437002     0.358114    Uiso  ? Al
   Al19       1.0     0.891985     0.537042     0.116909    Uiso  ? Al
   Al20       1.0     0.442340     0.427862     0.870060    Uiso  ? Al
   Al21       1.0     0.551092     0.539992     0.623701    Uiso  ? Al
   Al22       1.0     0.113813     0.755706     0.372238    Uiso  ? Al
   Al23       1.0     0.219426     0.869999     0.120469    Uiso  ? Al
   Al24       1.0     0.780904     0.760362     0.877953    Uiso  ? Al
   Al25       1.0     0.893409     0.867144     0.618573    Uiso  ? Al
   Al26       1.0     0.441015     0.754585     0.356568    Uiso  ? Al
   Al27       1.0     0.554956     0.873420     0.119072    Uiso  ? Al
   Al28       1.0     0.112588     0.758157     0.867765    Uiso  ? Al
   Al29       1.0     0.222781     0.867144     0.618573    Uiso  ? Al
   Al30       1.0     0.787733     0.754585     0.356568    Uiso  ? Al
   Al31       1.0     0.893908     0.869999     0.120469    Uiso  ? Al
   Al32       1.0     0.442067     0.760362     0.877953    Uiso  ? Al
   Hf1        1.0     0.888304     0.206726     0.597124    Uiso  ? Hf
   Hf2        1.0     0.555268     0.872798     0.603171    Uiso  ? Hf
   N1         1.0     0.225009     0.216242     0.337592    Uiso  ? N
   N2         1.0     0.111931     0.093294     0.089763    Uiso  ? N
   N3         1.0     0.887315     0.208703     0.846196    Uiso  ? N
   N4         1.0     0.769880     0.084374     0.602332    Uiso  ? N
   N5         1.0     0.542082     0.216242     0.337592    Uiso  ? N
   N6         1.0     0.444654     0.094025     0.094070    Uiso  ? N
   N7         1.0     0.223346     0.207272     0.841277    Uiso  ? N
   N8         1.0     0.129079     0.084375     0.602332    Uiso  ? N
   N9         1.0     0.881699     0.219936     0.346771    Uiso  ? N
   N10        1.0     0.778108     0.093294     0.089763    Uiso  ? N
   N11        1.0     0.552715     0.207272     0.841277    Uiso  ? N
   N12        1.0     0.436123     0.111088     0.586225    Uiso  ? N
   N13        1.0     0.222609     0.538115     0.341997    Uiso  ? N
   N14        1.0     0.111657     0.429505     0.086939    Uiso  ? N
   N15        1.0     0.888521     0.540306     0.843730    Uiso  ? N
   N16        1.0     0.766569     0.450196     0.588638    Uiso  ? N
   N17        1.0     0.554556     0.537564     0.334546    Uiso  ? N
   N18        1.0     0.442171     0.429505     0.086939    Uiso  ? N
   N19        1.0     0.222888     0.537558     0.836422    Uiso  ? N
   N20        1.0     0.109060     0.428989     0.591133    Uiso  ? N
   N21        1.0     0.891213     0.537564     0.334546    Uiso  ? N
   N22        1.0     0.776993     0.429347     0.092064    Uiso  ? N
   N23        1.0     0.554506     0.540306     0.843730    Uiso  ? N
   N24        1.0     0.445284     0.428989     0.591133    Uiso  ? N
   N25        1.0     0.227038     0.855945     0.336909    Uiso  ? N
   N26        1.0     0.112934     0.757465     0.084210    Uiso  ? N
   N27        1.0     0.889697     0.869168     0.841606    Uiso  ? N
   N28        1.0     0.794327     0.751819     0.584776    Uiso  ? N
   N29        1.0     0.555280     0.872774     0.344658    Uiso  ? N
   N30        1.0     0.445236     0.761250     0.094969    Uiso  ? N
   N31        1.0     0.224469     0.869168     0.841606    Uiso  ? N
   N32        1.0     0.112018     0.759297     0.593575    Uiso  ? N
   N33        1.0     0.900351     0.855945     0.336909    Uiso  ? N
   N34        1.0     0.776848     0.761250     0.094969    Uiso  ? N
   N35        1.0     0.555297     0.872740     0.847506    Uiso  ? N
   N36        1.0     0.437188     0.751819     0.584776    Uiso  ? N
