
#======================================================================
# CRYSTAL DATA
#----------------------------------------------------------------------
data_VESTA_phase_1

_chemical_name_common                  'Mg   Al   Hf   N                      '
_cell_length_a                         9.688728
_cell_length_b                         9.712733
_cell_length_c                         9.580687
_cell_angle_alpha                      90.015961
_cell_angle_beta                       90.000000
_cell_angle_gamma                      60.081726
_cell_volume                           781.434438
_space_group_name_H-M_alt              'P 1'
_space_group_IT_number                 1

loop_
_space_group_symop_operation_xyz
   'x, y, z'

loop_
   _atom_site_label
   _atom_site_occupancy
   _atom_site_fract_x
   _atom_site_fract_y
   _atom_site_fract_z
   _atom_site_adp_type
   _atom_site_U_iso_or_equiv
   _atom_site_type_symbol
   Mg1        1.0     0.123026     0.087843     0.365064    Uiso  ? Mg
   Mg2        1.0     0.772464     0.087843     0.365064    Uiso  ? Mg
   Al1        1.0     0.221208     0.209058     0.129537    Uiso  ? Al
   Al2        1.0     0.777968     0.094605     0.880661    Uiso  ? Al
   Al3        1.0     0.436580     0.110174     0.372393    Uiso  ? Al
   Al4        1.0     0.553067     0.209058     0.129537    Uiso  ? Al
   Al5        1.0     0.110760     0.094605     0.880661    Uiso  ? Al
   Al6        1.0     0.221167     0.210362     0.632087    Uiso  ? Al
   Al7        1.0     0.887805     0.207724     0.141090    Uiso  ? Al
   Al8        1.0     0.443569     0.096196     0.884047    Uiso  ? Al
   Al9        1.0     0.551805     0.210362     0.632087    Uiso  ? Al
   Al10       1.0     0.111844     0.427967     0.378699    Uiso  ? Al
   Al11       1.0     0.222022     0.539290     0.132684    Uiso  ? Al
   Al12       1.0     0.777958     0.427418     0.882597    Uiso  ? Al
   Al13       1.0     0.893258     0.539715     0.633116    Uiso  ? Al
   Al14       1.0     0.443522     0.427966     0.378699    Uiso  ? Al
   Al15       1.0     0.554817     0.537796     0.127638    Uiso  ? Al
   Al16       1.0     0.112231     0.428778     0.880205    Uiso  ? Al
   Al17       1.0     0.222670     0.537994     0.627859    Uiso  ? Al
   Al18       1.0     0.771873     0.439587     0.372865    Uiso  ? Al
   Al19       1.0     0.890720     0.537796     0.127638    Uiso  ? Al
   Al20       1.0     0.442324     0.428778     0.880205    Uiso  ? Al
   Al21       1.0     0.550361     0.539715     0.633116    Uiso  ? Al
   Al22       1.0     0.113297     0.756739     0.379987    Uiso  ? Al
   Al23       1.0     0.221167     0.868799     0.128754    Uiso  ? Al
   Al24       1.0     0.778388     0.760898     0.884742    Uiso  ? Al
   Al25       1.0     0.893956     0.867189     0.632571    Uiso  ? Al
   Al26       1.0     0.438944     0.754097     0.371686    Uiso  ? Al
   Al27       1.0     0.555039     0.873255     0.135785    Uiso  ? Al
   Al28       1.0     0.112691     0.757951     0.878993    Uiso  ? Al
   Al29       1.0     0.222188     0.867189     0.632571    Uiso  ? Al
   Al30       1.0     0.790292     0.754097     0.371686    Uiso  ? Al
   Al31       1.0     0.893368     0.868799     0.128754    Uiso  ? Al
   Al32       1.0     0.444047     0.760898     0.884742    Uiso  ? Al
   Hf1        1.0     0.889041     0.205252     0.599359    Uiso  ? Hf
   Hf2        1.0     0.555000     0.873333     0.607524    Uiso  ? Hf
   N1         1.0     0.225704     0.217141     0.323473    Uiso  ? N
   N2         1.0     0.109754     0.094595     0.083306    Uiso  ? N
   N3         1.0     0.887830     0.207673     0.828628    Uiso  ? N
   N4         1.0     0.767921     0.082088     0.587741    Uiso  ? N
   N5         1.0     0.540488     0.217141     0.323473    Uiso  ? N
   N6         1.0     0.445810     0.091712     0.081418    Uiso  ? N
   N7         1.0     0.222852     0.206624     0.832492    Uiso  ? N
   N8         1.0     0.133325     0.082088     0.587741    Uiso  ? N
   N9         1.0     0.881261     0.220812     0.345015    Uiso  ? N
   N10        1.0     0.778985     0.094595     0.083306    Uiso  ? N
   N11        1.0     0.553857     0.206624     0.832492    Uiso  ? N
   N12        1.0     0.433821     0.115691     0.575001    Uiso  ? N
   N13        1.0     0.222565     0.538203     0.332323    Uiso  ? N
   N14        1.0     0.111061     0.430045     0.077251    Uiso  ? N
   N15        1.0     0.888246     0.540030     0.832095    Uiso  ? N
   N16        1.0     0.764844     0.453645     0.576553    Uiso  ? N
   N17        1.0     0.554313     0.538063     0.325263    Uiso  ? N
   N18        1.0     0.442227     0.430045     0.077251    Uiso  ? N
   N19        1.0     0.222725     0.537883     0.826369    Uiso  ? N
   N20        1.0     0.109685     0.427805     0.580355    Uiso  ? N
   N21        1.0     0.890958     0.538063     0.325263    Uiso  ? N
   N22        1.0     0.778079     0.427175     0.081284    Uiso  ? N
   N23        1.0     0.555057     0.540030     0.832095    Uiso  ? N
   N24        1.0     0.445843     0.427805     0.580355    Uiso  ? N
   N25        1.0     0.227780     0.854207     0.323156    Uiso  ? N
   N26        1.0     0.112981     0.757372     0.075125    Uiso  ? N
   N27        1.0     0.889108     0.870353     0.832748    Uiso  ? N
   N28        1.0     0.798068     0.750562     0.573964    Uiso  ? N
   N29        1.0     0.555160     0.873014     0.343682    Uiso  ? N
   N30        1.0     0.446693     0.761698     0.082599    Uiso  ? N
   N31        1.0     0.223872     0.870353     0.832748    Uiso  ? N
   N32        1.0     0.111599     0.760136     0.581972    Uiso  ? N
   N33        1.0     0.901346     0.854207     0.323156    Uiso  ? N
   N34        1.0     0.774943     0.761698     0.082599    Uiso  ? N
   N35        1.0     0.555345     0.872644     0.829378    Uiso  ? N
   N36        1.0     0.434704     0.750562     0.573964    Uiso  ? N
