
#======================================================================
# CRYSTAL DATA
#----------------------------------------------------------------------
data_VESTA_phase_1

_chemical_name_common                  'Mg   Al   Hf   N                      '
_cell_length_a                         9.637755
_cell_length_b                         9.661586
_cell_length_c                         9.726375
_cell_angle_alpha                      90.017754
_cell_angle_beta                       90.000000
_cell_angle_gamma                      60.081562
_cell_volume                           784.986632
_space_group_name_H-M_alt              'P 1'
_space_group_IT_number                 1

loop_
_space_group_symop_operation_xyz
   'x, y, z'

loop_
   _atom_site_label
   _atom_site_occupancy
   _atom_site_fract_x
   _atom_site_fract_y
   _atom_site_fract_z
   _atom_site_adp_type
   _atom_site_U_iso_or_equiv
   _atom_site_type_symbol
   Mg1        1.0     0.123274     0.087739     0.367815    Uiso  ? Mg
   Mg2        1.0     0.772320     0.087739     0.367815    Uiso  ? Mg
   Al1        1.0     0.221448     0.208820     0.130721    Uiso  ? Al
   Al2        1.0     0.778107     0.094712     0.882737    Uiso  ? Al
   Al3        1.0     0.436609     0.110116     0.374156    Uiso  ? Al
   Al4        1.0     0.553065     0.208820     0.130721    Uiso  ? Al
   Al5        1.0     0.110515     0.094712     0.882737    Uiso  ? Al
   Al6        1.0     0.221132     0.210551     0.633997    Uiso  ? Al
   Al7        1.0     0.887770     0.207793     0.143230    Uiso  ? Al
   Al8        1.0     0.443641     0.096052     0.885155    Uiso  ? Al
   Al9        1.0     0.551650     0.210551     0.633997    Uiso  ? Al
   Al10       1.0     0.111981     0.427700     0.379608    Uiso  ? Al
   Al11       1.0     0.222031     0.539271     0.133992    Uiso  ? Al
   Al12       1.0     0.778013     0.427307     0.883763    Uiso  ? Al
   Al13       1.0     0.893576     0.539613     0.634165    Uiso  ? Al
   Al14       1.0     0.443653     0.427700     0.379608    Uiso  ? Al
   Al15       1.0     0.554921     0.538008     0.129348    Uiso  ? Al
   Al16       1.0     0.112037     0.428898     0.881806    Uiso  ? Al
   Al17       1.0     0.222636     0.538061     0.629221    Uiso  ? Al
   Al18       1.0     0.771921     0.439491     0.374722    Uiso  ? Al
   Al19       1.0     0.890405     0.538008     0.129348    Uiso  ? Al
   Al20       1.0     0.442399     0.428898     0.881806    Uiso  ? Al
   Al21       1.0     0.550144     0.539613     0.634165    Uiso  ? Al
   Al22       1.0     0.113175     0.756984     0.380582    Uiso  ? Al
   Al23       1.0     0.221484     0.868851     0.130026    Uiso  ? Al
   Al24       1.0     0.778410     0.760759     0.885636    Uiso  ? Al
   Al25       1.0     0.894257     0.867063     0.634367    Uiso  ? Al
   Al26       1.0     0.438841     0.754396     0.373810    Uiso  ? Al
   Al27       1.0     0.555071     0.873191     0.137259    Uiso  ? Al
   Al28       1.0     0.112642     0.758049     0.880910    Uiso  ? Al
   Al29       1.0     0.222014     0.867063     0.634367    Uiso  ? Al
   Al30       1.0     0.790096     0.754396     0.373810    Uiso  ? Al
   Al31       1.0     0.892998     0.868851     0.130026    Uiso  ? Al
   Al32       1.0     0.444164     0.760759     0.885636    Uiso  ? Al
   Hf1        1.0     0.889079     0.205175     0.601622    Uiso  ? Hf
   Hf2        1.0     0.554914     0.873505     0.609742    Uiso  ? Hf
   N1         1.0     0.225943     0.216960     0.321471    Uiso  ? N
   N2         1.0     0.109552     0.094731     0.081856    Uiso  ? N
   N3         1.0     0.887954     0.207426     0.826715    Uiso  ? N
   N4         1.0     0.767559     0.081756     0.586040    Uiso  ? N
   N5         1.0     0.540430     0.216960     0.321471    Uiso  ? N
   N6         1.0     0.445889     0.091555     0.079431    Uiso  ? N
   N7         1.0     0.222699     0.206612     0.831167    Uiso  ? N
   N8         1.0     0.134018     0.081756     0.586040    Uiso  ? N
   N9         1.0     0.881307     0.220719     0.343736    Uiso  ? N
   N10        1.0     0.779051     0.094731     0.081856    Uiso  ? N
   N11        1.0     0.554022     0.206612     0.831167    Uiso  ? N
   N12        1.0     0.433525     0.116283     0.573505    Uiso  ? N
   N13        1.0     0.222573     0.538188     0.330618    Uiso  ? N
   N14        1.0     0.110900     0.430060     0.075944    Uiso  ? N
   N15        1.0     0.888318     0.539883     0.830153    Uiso  ? N
   N16        1.0     0.764658     0.454017     0.574978    Uiso  ? N
   N17        1.0     0.554306     0.538329     0.324088    Uiso  ? N
   N18        1.0     0.442373     0.430060     0.075944    Uiso  ? N
   N19        1.0     0.222659     0.538016     0.825062    Uiso  ? N
   N20        1.0     0.109892     0.427614     0.578603    Uiso  ? N
   N21        1.0     0.890698     0.538329     0.324088    Uiso  ? N
   N22        1.0     0.778171     0.426990     0.079603    Uiso  ? N
   N23        1.0     0.555133     0.539883     0.830153    Uiso  ? N
   N24        1.0     0.445827     0.427614     0.578603    Uiso  ? N
   N25        1.0     0.228056     0.854149     0.321239    Uiso  ? N
   N26        1.0     0.112896     0.757541     0.074048    Uiso  ? N
   N27        1.0     0.889161     0.870516     0.831355    Uiso  ? N
   N28        1.0     0.798432     0.750535     0.572648    Uiso  ? N
   N29        1.0     0.555119     0.873095     0.342652    Uiso  ? N
   N30        1.0     0.446813     0.761658     0.080508    Uiso  ? N
   N31        1.0     0.223656     0.870516     0.831355    Uiso  ? N
   N32        1.0     0.111558     0.760217     0.579978    Uiso  ? N
   N33        1.0     0.901129     0.854149     0.321239    Uiso  ? N
   N34        1.0     0.774862     0.761658     0.080508    Uiso  ? N
   N35        1.0     0.555348     0.872638     0.827573    Uiso  ? N
   N36        1.0     0.434366     0.750535     0.572648    Uiso  ? N
