# generated using pymatgen
data_LiGe2N3
_symmetry_space_group_name_H-M   'P 1'
_cell_length_a   5.55637221
_cell_length_b   5.54378342
_cell_length_c   5.48990463
_cell_angle_alpha   90.65339914
_cell_angle_beta   90.66582133
_cell_angle_gamma   60.41471774
_symmetry_Int_Tables_number   1
_chemical_formula_structural   LiGe2N3
_chemical_formula_sum   'Li2 Ge4 N6'
_cell_volume   147.04634994
_cell_formula_units_Z   2
loop_
 _symmetry_equiv_pos_site_id
 _symmetry_equiv_pos_as_xyz
  1  'x, y, z'
loop_
 _atom_site_type_symbol
 _atom_site_label
 _atom_site_symmetry_multiplicity
 _atom_site_fract_x
 _atom_site_fract_y
 _atom_site_fract_z
 _atom_site_occupancy
  Ge  Ge0  1  -0.98328845  0.66324790  0.10308697  1
  Ge  Ge1  1  -0.66659759  0.98067698  0.94958937  1
  Ge  Ge2  1  -0.30218435  0.98244512  0.60489875  1
  Ge  Ge3  1  -0.98729773  0.30232097  0.44974295  1
  N  N4  1  -0.67328226  0.66968839  0.02653047  1
  N  N5  1  -0.93899466  0.29799743  0.10376827  1
  N  N6  1  -0.30169118  0.93015267  0.95016939  1
  N  N7  1  -0.28751631  0.29717599  0.56201576  1
  N  N8  1  -0.03233979  0.66749746  0.44909582  1
  N  N9  1  -0.66734941  0.03294997  0.60221491  1
  Li  Li10  1  -0.31461974  0.33199719  0.96473752  1
  Li  Li11  1  -0.64483089  0.64384492  0.52418406  1
