# generated using pymatgen
data_LiGe2N3
_symmetry_space_group_name_H-M   'P 1'
_cell_length_a   5.38383781
_cell_length_b   5.58719475
_cell_length_c   5.56521653
_cell_angle_alpha   119.84174746
_cell_angle_beta   89.65031678
_cell_angle_gamma   90.57447248
_symmetry_Int_Tables_number   1
_chemical_formula_structural   LiGe2N3
_chemical_formula_sum   'Li2 Ge4 N6'
_cell_volume   145.20000527
_cell_formula_units_Z   2
loop_
 _symmetry_equiv_pos_site_id
 _symmetry_equiv_pos_as_xyz
  1  'x, y, z'
loop_
 _atom_site_type_symbol
 _atom_site_label
 _atom_site_symmetry_multiplicity
 _atom_site_fract_x
 _atom_site_fract_y
 _atom_site_fract_z
 _atom_site_occupancy
  Ge  Ge0  1  0.10083681  0.66197132  0.98448082  1
  Ge  Ge1  1  0.95999876  0.97560330  0.65537984  1
  Ge  Ge2  1  0.55330070  0.98936669  0.31495241  1
  Ge  Ge3  1  0.45034967  0.29941729  0.98665716  1
  N  N4  1  0.05877796  0.67458557  0.66961937  1
  N  N5  1  0.09731068  0.30135569  0.94640923  1
  N  N6  1  0.01233575  0.95885376  0.31798417  1
  N  N7  1  0.56254229  0.29501735  0.28989679  1
  N  N8  1  0.46917538  0.65270884  0.01724093  1
  N  N9  1  0.59982571  0.02064999  0.66206627  1
  Li  Li10  1  0.96109700  0.32469360  0.32207431  1
  Li  Li11  1  0.46967659  0.64577033  0.63323344  1
