# generated using pymatgen
data_LiGe2N3
_symmetry_space_group_name_H-M   'P 1'
_cell_length_a   5.55577232
_cell_length_b   5.54890512
_cell_length_c   5.45466734
_cell_angle_alpha   90.69723462
_cell_angle_beta   90.72013333
_cell_angle_gamma   60.37259529
_symmetry_Int_Tables_number   1
_chemical_formula_structural   LiGe2N3
_chemical_formula_sum   'Li2 Ge4 N6'
_cell_volume   146.15864019
_cell_formula_units_Z   2
loop_
 _symmetry_equiv_pos_site_id
 _symmetry_equiv_pos_as_xyz
  1  'x, y, z'
loop_
 _atom_site_type_symbol
 _atom_site_label
 _atom_site_symmetry_multiplicity
 _atom_site_fract_x
 _atom_site_fract_y
 _atom_site_fract_z
 _atom_site_occupancy
  Ge  Ge0  1  -0.98401936  0.66279718  0.10497822  1
  Ge  Ge1  1  -0.66589689  0.97822568  0.95202245  1
  Ge  Ge2  1  -0.30364865  0.98236468  0.60572558  1
  Ge  Ge3  1  -0.98879631  0.30150269  0.45176084  1
  N  N4  1  -0.66932928  0.67232726  0.05309023  1
  N  N5  1  -0.93935631  0.29815767  0.10347653  1
  N  N6  1  -0.30182138  0.93117506  0.95258878  1
  N  N7  1  -0.29057568  0.29775174  0.56310243  1
  N  N8  1  -0.03413381  0.66579516  0.45237594  1
  N  N9  1  -0.66818111  0.02914736  0.60308930  1
  Li  Li10  1  -0.31723656  0.33438311  0.96444317  1
  Li  Li11  1  -0.63699705  0.64636739  0.48346310  1
