# generated using pymatgen
data_LiGe2N3
_symmetry_space_group_name_H-M   'P 1'
_cell_length_a   5.55794251
_cell_length_b   5.57438762
_cell_length_c   5.31306250
_cell_angle_alpha   90.44952282
_cell_angle_beta   90.30878346
_cell_angle_gamma   60.50834986
_symmetry_Int_Tables_number   1
_chemical_formula_structural   LiGe2N3
_chemical_formula_sum   'Li2 Ge4 N6'
_cell_volume   143.27640716
_cell_formula_units_Z   2
loop_
 _symmetry_equiv_pos_site_id
 _symmetry_equiv_pos_as_xyz
  1  'x, y, z'
loop_
 _atom_site_type_symbol
 _atom_site_label
 _atom_site_symmetry_multiplicity
 _atom_site_fract_x
 _atom_site_fract_y
 _atom_site_fract_z
 _atom_site_occupancy
  Ge  Ge0  1  -0.97226099  0.65345709  0.10197038  1
  Ge  Ge1  1  -0.65330778  0.98183779  0.95615066  1
  Ge  Ge2  1  -0.33088813  0.99721663  0.46246842  1
  Ge  Ge3  1  -0.99095435  0.30252195  0.45734206  1
  N  N4  1  -0.66553902  0.67605235  0.05206053  1
  N  N5  1  -0.94814396  0.30157926  0.09399098  1
  N  N6  1  -0.33189125  0.96929684  0.08912596  1
  N  N7  1  -0.28766890  0.28403010  0.56670901  1
  N  N8  1  -0.01101303  0.64914282  0.47952511  1
  N  N9  1  -0.65370274  0.02091965  0.59811253  1
  Li  Li10  1  -0.32145206  0.31992124  0.95433891  1
  Li  Li11  1  -0.63317254  0.64401798  0.48343154  1
