# generated using pymatgen
data_LiGe2N3
_symmetry_space_group_name_H-M   'P 1'
_cell_length_a   5.56306453
_cell_length_b   5.58649464
_cell_length_c   5.34852910
_cell_angle_alpha   90.57472365
_cell_angle_beta   90.33072797
_cell_angle_gamma   60.25007252
_symmetry_Int_Tables_number   1
_chemical_formula_structural   LiGe2N3
_chemical_formula_sum   'Li2 Ge4 N6'
_cell_volume   144.30630904
_cell_formula_units_Z   2
loop_
 _symmetry_equiv_pos_site_id
 _symmetry_equiv_pos_as_xyz
  1  'x, y, z'
loop_
 _atom_site_type_symbol
 _atom_site_label
 _atom_site_symmetry_multiplicity
 _atom_site_fract_x
 _atom_site_fract_y
 _atom_site_fract_z
 _atom_site_occupancy
  Ge  Ge0  1  -0.98080006  0.65862933  0.09977989  1
  Ge  Ge1  1  -0.65295738  0.97649419  0.96004636  1
  Ge  Ge2  1  -0.32292295  0.99414548  0.50484731  1
  Ge  Ge3  1  -0.98740768  0.30028842  0.45260572  1
  N  N4  1  -0.66869232  0.67485950  0.05775166  1
  N  N5  1  -0.94686695  0.30089699  0.09618033  1
  N  N6  1  -0.32520424  0.96556878  0.05258740  1
  N  N7  1  -0.28887053  0.29176074  0.56565441  1
  N  N8  1  -0.01305795  0.64953150  0.47501271  1
  N  N9  1  -0.65795662  0.01959021  0.59989156  1
  Li  Li10  1  -0.32208592  0.32272705  0.95956556  1
  Li  Li11  1  -0.63317215  0.64550151  0.47130440  1
