# generated using pymatgen
data_LiGe2N3
_symmetry_space_group_name_H-M   'P 1'
_cell_length_a   5.54721442
_cell_length_b   5.54983515
_cell_length_c   5.15397732
_cell_angle_alpha   89.89026950
_cell_angle_beta   90.21416778
_cell_angle_gamma   60.17166250
_symmetry_Int_Tables_number   1
_chemical_formula_structural   LiGe2N3
_chemical_formula_sum   'Li2 Ge4 N6'
_cell_volume   137.64792450
_cell_formula_units_Z   2
loop_
 _symmetry_equiv_pos_site_id
 _symmetry_equiv_pos_as_xyz
  1  'x, y, z'
loop_
 _atom_site_type_symbol
 _atom_site_label
 _atom_site_symmetry_multiplicity
 _atom_site_fract_x
 _atom_site_fract_y
 _atom_site_fract_z
 _atom_site_occupancy
  Ge  Ge0  1  -0.98008754  0.65364754  0.96391324  1
  Ge  Ge1  1  -0.65340447  0.98100643  0.96283412  1
  Ge  Ge2  1  -0.31405702  0.98605793  0.46263305  1
  Ge  Ge3  1  -0.98734152  0.31361916  0.46255335  1
  N  N4  1  -0.68238676  0.68346934  0.06379186  1
  N  N5  1  -0.94556589  0.31888917  0.09593198  1
  N  N6  1  -0.31859641  0.94631735  0.09567837  1
  N  N7  1  -0.28257318  0.28165332  0.56370723  1
  N  N8  1  -0.02137848  0.64748383  0.59604830  1
  N  N9  1  -0.64837196  0.02149624  0.59592758  1
  Li  Li10  1  -0.32346465  0.32386923  0.96255466  1
  Li  Li11  1  -0.64276687  0.64248414  0.46969198  1
