# generated using pymatgen
data_LiGe2N3
_symmetry_space_group_name_H-M   'P 1'
_cell_length_a   5.56294773
_cell_length_b   5.56249965
_cell_length_c   5.24220539
_cell_angle_alpha   89.83062494
_cell_angle_beta   90.25464165
_cell_angle_gamma   60.21456446
_symmetry_Int_Tables_number   1
_chemical_formula_structural   LiGe2N3
_chemical_formula_sum   'Li2 Ge4 N6'
_cell_volume   140.78052966
_cell_formula_units_Z   2
loop_
 _symmetry_equiv_pos_site_id
 _symmetry_equiv_pos_as_xyz
  1  'x, y, z'
loop_
 _atom_site_type_symbol
 _atom_site_label
 _atom_site_symmetry_multiplicity
 _atom_site_fract_x
 _atom_site_fract_y
 _atom_site_fract_z
 _atom_site_occupancy
  Ge  Ge0  1  -0.97464754  0.65445198  0.02734197  1
  Ge  Ge1  1  -0.65309539  0.98454243  0.95505793  1
  Ge  Ge2  1  -0.32056147  0.98672121  0.46410661  1
  Ge  Ge3  1  -0.99380274  0.31218668  0.46246012  1
  N  N4  1  -0.66795080  0.67947497  0.05916948  1
  N  N5  1  -0.94840340  0.31023188  0.09481349  1
  N  N6  1  -0.32670394  0.96100811  0.09304477  1
  N  N7  1  -0.28718432  0.28070268  0.56356603  1
  N  N8  1  -0.01302426  0.64677618  0.54538298  1
  N  N9  1  -0.65295307  0.02052244  0.59535803  1
  Li  Li10  1  -0.32089230  0.32094973  0.95365616  1
  Li  Li11  1  -0.64077554  0.64242541  0.48130815  1
