# generated using pymatgen
data_LiGe2N3
_symmetry_space_group_name_H-M   'P 1'
_cell_length_a   5.45466734
_cell_length_b   5.54890512
_cell_length_c   5.55577232
_cell_angle_alpha   119.62740471
_cell_angle_beta   89.27986667
_cell_angle_gamma   90.69723462
_symmetry_Int_Tables_number   1
_chemical_formula_structural   LiGe2N3
_chemical_formula_sum   'Li2 Ge4 N6'
_cell_volume   146.15864019
_cell_formula_units_Z   2
loop_
 _symmetry_equiv_pos_site_id
 _symmetry_equiv_pos_as_xyz
  1  'x, y, z'
loop_
 _atom_site_type_symbol
 _atom_site_label
 _atom_site_symmetry_multiplicity
 _atom_site_fract_x
 _atom_site_fract_y
 _atom_site_fract_z
 _atom_site_occupancy
  Ge  Ge0  1  0.10497822  0.66279718  0.98401936  1
  Ge  Ge1  1  0.95202245  0.97822568  0.66589689  1
  Ge  Ge2  1  0.60572558  0.98236468  0.30364865  1
  Ge  Ge3  1  0.45176084  0.30150269  0.98879631  1
  N  N4  1  0.05309023  0.67232726  0.66932928  1
  N  N5  1  0.10347653  0.29815767  0.93935631  1
  N  N6  1  0.95258878  0.93117506  0.30182138  1
  N  N7  1  0.56310243  0.29775174  0.29057568  1
  N  N8  1  0.45237594  0.66579516  0.03413381  1
  N  N9  1  0.60308930  0.02914736  0.66818111  1
  Li  Li10  1  0.96444317  0.33438311  0.31723656  1
  Li  Li11  1  0.48346310  0.64636739  0.63699705  1
