# generated using pymatgen
data_LiGe2N3
_symmetry_space_group_name_H-M   'P 1'
_cell_length_a   5.56661427
_cell_length_b   5.57395445
_cell_length_c   5.29514379
_cell_angle_alpha   89.79352788
_cell_angle_beta   90.23710239
_cell_angle_gamma   60.35620609
_symmetry_Int_Tables_number   1
_chemical_formula_structural   LiGe2N3
_chemical_formula_sum   'Li2 Ge4 N6'
_cell_volume   142.78997444
_cell_formula_units_Z   2
loop_
 _symmetry_equiv_pos_site_id
 _symmetry_equiv_pos_as_xyz
  1  'x, y, z'
loop_
 _atom_site_type_symbol
 _atom_site_label
 _atom_site_symmetry_multiplicity
 _atom_site_fract_x
 _atom_site_fract_y
 _atom_site_fract_z
 _atom_site_occupancy
  Ge  Ge0  1  -0.97125748  0.65459492  0.09543210  1
  Ge  Ge1  1  -0.65355159  0.98471488  0.95519393  1
  Ge  Ge2  1  -0.32919165  0.99416984  0.46100854  1
  Ge  Ge3  1  -0.99263059  0.30417562  0.45807983  1
  N  N4  1  -0.66506277  0.67761908  0.05226592  1
  N  N5  1  -0.94857411  0.30468304  0.09259580  1
  N  N6  1  -0.33190652  0.96881011  0.09024047  1
  N  N7  1  -0.28711904  0.28074384  0.56512536  1
  N  N8  1  -0.01012056  0.64727425  0.48824703  1
  N  N9  1  -0.65305596  0.02010578  0.59654608  1
  Li  Li10  1  -0.32115982  0.32049663  0.95255976  1
  Li  Li11  1  -0.63636468  0.64260570  0.48797092  1
