# generated using pymatgen
data_LiGe2N3
_symmetry_space_group_name_H-M   'P 1'
_cell_length_a   5.54650308
_cell_length_b   5.54889859
_cell_length_c   5.17162008
_cell_angle_alpha   89.89233929
_cell_angle_beta   90.29211822
_cell_angle_gamma   60.18897245
_symmetry_Int_Tables_number   1
_chemical_formula_structural   LiGe2N3
_chemical_formula_sum   'Li2 Ge4 N6'
_cell_volume   138.10069711
_cell_formula_units_Z   2
loop_
 _symmetry_equiv_pos_site_id
 _symmetry_equiv_pos_as_xyz
  1  'x, y, z'
loop_
 _atom_site_type_symbol
 _atom_site_label
 _atom_site_symmetry_multiplicity
 _atom_site_fract_x
 _atom_site_fract_y
 _atom_site_fract_z
 _atom_site_occupancy
  Ge  Ge0  1  -0.97929150  0.65387050  0.96756821  1
  Ge  Ge1  1  -0.65332634  0.98175893  0.96176890  1
  Ge  Ge2  1  -0.31523263  0.98563943  0.46278584  1
  Ge  Ge3  1  -0.98914269  0.31385962  0.46254684  1
  N  N4  1  -0.67898621  0.68209272  0.06303942  1
  N  N5  1  -0.94690553  0.31823614  0.09604693  1
  N  N6  1  -0.31922573  0.94929700  0.09541108  1
  N  N7  1  -0.28391620  0.28143099  0.56367868  1
  N  N8  1  -0.01927973  0.64730530  0.59402135  1
  N  N9  1  -0.64968209  0.02111629  0.59577427  1
  Li  Li10  1  -0.32235655  0.32285053  0.95909632  1
  Li  Li11  1  -0.64264958  0.64253624  0.47352790  1
