# generated using pymatgen
data_LiGe2N3
_symmetry_space_group_name_H-M   'P 1'
_cell_length_a   5.54257446
_cell_length_b   5.52634285
_cell_length_c   5.55622165
_cell_angle_alpha   119.62902030
_cell_angle_beta   89.59216398
_cell_angle_gamma   90.46459670
_symmetry_Int_Tables_number   1
_chemical_formula_structural   LiGe2N3
_chemical_formula_sum   'Li2 Ge4 N6'
_cell_volume   147.92919248
_cell_formula_units_Z   2
loop_
 _symmetry_equiv_pos_site_id
 _symmetry_equiv_pos_as_xyz
  1  'x, y, z'
loop_
 _atom_site_type_symbol
 _atom_site_label
 _atom_site_symmetry_multiplicity
 _atom_site_fract_x
 _atom_site_fract_y
 _atom_site_fract_z
 _atom_site_occupancy
  Ge  Ge0  1  0.09794972  0.66329582  0.98187393  1
  Ge  Ge1  1  0.94282566  0.98345107  0.66705264  1
  Ge  Ge2  1  0.60059517  0.98324487  0.29961008  1
  Ge  Ge3  1  0.44549996  0.30339530  0.98478315  1
  N  N4  1  0.98504504  0.66769538  0.68183978  1
  N  N5  1  0.10215211  0.29665840  0.93831704  1
  N  N6  1  0.94419496  0.92830920  0.30121181  1
  N  N7  1  0.55825212  0.29898905  0.28486506  1
  N  N8  1  0.44129556  0.67002870  0.02832944  1
  N  N9  1  0.59924762  0.03839370  0.66545315  1
  Li  Li10  1  0.96388896  0.32922538  0.31173640  1
  Li  Li11  1  0.57986719  0.63730106  0.65491757  1
