# generated using pymatgen
data_LiGe2N3
_symmetry_space_group_name_H-M   'P 1'
_cell_length_a   5.15397732
_cell_length_b   5.54983515
_cell_length_c   5.54721442
_cell_angle_alpha   119.82833750
_cell_angle_beta   89.78583222
_cell_angle_gamma   89.89026950
_symmetry_Int_Tables_number   1
_chemical_formula_structural   LiGe2N3
_chemical_formula_sum   'Li2 Ge4 N6'
_cell_volume   137.64792450
_cell_formula_units_Z   2
loop_
 _symmetry_equiv_pos_site_id
 _symmetry_equiv_pos_as_xyz
  1  'x, y, z'
loop_
 _atom_site_type_symbol
 _atom_site_label
 _atom_site_symmetry_multiplicity
 _atom_site_fract_x
 _atom_site_fract_y
 _atom_site_fract_z
 _atom_site_occupancy
  Ge  Ge0  1  0.96391324  0.65364754  0.98008754  1
  Ge  Ge1  1  0.96283412  0.98100643  0.65340447  1
  Ge  Ge2  1  0.46263305  0.98605793  0.31405702  1
  Ge  Ge3  1  0.46255335  0.31361916  0.98734152  1
  N  N4  1  0.06379186  0.68346934  0.68238676  1
  N  N5  1  0.09593198  0.31888917  0.94556589  1
  N  N6  1  0.09567837  0.94631735  0.31859641  1
  N  N7  1  0.56370723  0.28165332  0.28257318  1
  N  N8  1  0.59604830  0.64748383  0.02137848  1
  N  N9  1  0.59592758  0.02149624  0.64837196  1
  Li  Li10  1  0.96255466  0.32386923  0.32346465  1
  Li  Li11  1  0.46969198  0.64248414  0.64276687  1
