# generated using pymatgen
data_LiGe2N3
_symmetry_space_group_name_H-M   'P 1'
_cell_length_a   5.55565692
_cell_length_b   5.54026583
_cell_length_c   5.50750665
_cell_angle_alpha   90.62150710
_cell_angle_beta   90.61914999
_cell_angle_gamma   60.42012667
_symmetry_Int_Tables_number   1
_chemical_formula_structural   LiGe2N3
_chemical_formula_sum   'Li2 Ge4 N6'
_cell_volume   147.41465178
_cell_formula_units_Z   2
loop_
 _symmetry_equiv_pos_site_id
 _symmetry_equiv_pos_as_xyz
  1  'x, y, z'
loop_
 _atom_site_type_symbol
 _atom_site_label
 _atom_site_symmetry_multiplicity
 _atom_site_fract_x
 _atom_site_fract_y
 _atom_site_fract_z
 _atom_site_occupancy
  Ge  Ge0  1  -0.98279785  0.66333208  0.10228515  1
  Ge  Ge1  1  -0.66684425  0.98178471  0.94831247  1
  Ge  Ge2  1  -0.30139540  0.98254056  0.60441611  1
  Ge  Ge3  1  -0.98652142  0.30263484  0.44899158  1
  N  N4  1  -0.67585923  0.66879800  0.01282381  1
  N  N5  1  -0.93879814  0.29775423  0.10398248  1
  N  N6  1  -0.30153931  0.92966063  0.94909392  1
  N  N7  1  -0.28645582  0.29729381  0.56135026  1
  N  N8  1  -0.03119387  0.66824092  0.44745940  1
  N  N9  1  -0.66682930  0.03462699  0.60191265  1
  Li  Li10  1  -0.31359037  0.33103079  0.96501750  1
  Li  Li11  1  -0.64816741  0.64229744  0.54436655  1
