# generated using pymatgen
data_LiGe2N3
_symmetry_space_group_name_H-M   'P 1'
_cell_length_a   5.34852910
_cell_length_b   5.58649464
_cell_length_c   5.56306453
_cell_angle_alpha   119.74992748
_cell_angle_beta   89.66927203
_cell_angle_gamma   90.57472365
_symmetry_Int_Tables_number   1
_chemical_formula_structural   LiGe2N3
_chemical_formula_sum   'Li2 Ge4 N6'
_cell_volume   144.30630904
_cell_formula_units_Z   2
loop_
 _symmetry_equiv_pos_site_id
 _symmetry_equiv_pos_as_xyz
  1  'x, y, z'
loop_
 _atom_site_type_symbol
 _atom_site_label
 _atom_site_symmetry_multiplicity
 _atom_site_fract_x
 _atom_site_fract_y
 _atom_site_fract_z
 _atom_site_occupancy
  Ge  Ge0  1  0.09977989  0.65862933  0.98080006  1
  Ge  Ge1  1  0.96004636  0.97649419  0.65295738  1
  Ge  Ge2  1  0.50484731  0.99414548  0.32292295  1
  Ge  Ge3  1  0.45260572  0.30028842  0.98740768  1
  N  N4  1  0.05775166  0.67485950  0.66869232  1
  N  N5  1  0.09618033  0.30089699  0.94686695  1
  N  N6  1  0.05258740  0.96556878  0.32520424  1
  N  N7  1  0.56565441  0.29176074  0.28887053  1
  N  N8  1  0.47501271  0.64953150  0.01305795  1
  N  N9  1  0.59989156  0.01959021  0.65795662  1
  Li  Li10  1  0.95956556  0.32272705  0.32208592  1
  Li  Li11  1  0.47130440  0.64550151  0.63317215  1
