# generated using pymatgen
data_LiGe2N3
_symmetry_space_group_name_H-M   'P 1'
_cell_length_a   5.22455797
_cell_length_b   5.55904370
_cell_length_c   5.55931617
_cell_angle_alpha   119.79508918
_cell_angle_beta   89.72303841
_cell_angle_gamma   89.84938882
_symmetry_Int_Tables_number   1
_chemical_formula_structural   LiGe2N3
_chemical_formula_sum   'Li2 Ge4 N6'
_cell_volume   140.11425288
_cell_formula_units_Z   2
loop_
 _symmetry_equiv_pos_site_id
 _symmetry_equiv_pos_as_xyz
  1  'x, y, z'
loop_
 _atom_site_type_symbol
 _atom_site_label
 _atom_site_symmetry_multiplicity
 _atom_site_fract_x
 _atom_site_fract_y
 _atom_site_fract_z
 _atom_site_occupancy
  Ge  Ge0  1  0.00654203  0.65432184  0.97602819  1
  Ge  Ge1  1  0.95644674  0.98396004  0.65309884  1
  Ge  Ge2  1  0.46399893  0.98600928  0.31908849  1
  Ge  Ge3  1  0.46276996  0.31300187  0.99312163  1
  N  N4  1  0.06067035  0.67997710  0.67006011  1
  N  N5  1  0.09554776  0.31236105  0.94831945  1
  N  N6  1  0.09401002  0.95836707  0.32471967  1
  N  N7  1  0.56358174  0.28079746  0.28669976  1
  N  N8  1  0.56190275  0.64683271  0.01397254  1
  N  N9  1  0.59542996  0.02066839  0.65248125  1
  Li  Li10  1  0.95445272  0.32126460  0.32106057  1
  Li  Li11  1  0.47991277  0.64243229  0.64134426  1
