# generated using pymatgen
data_LiGe2N3
_symmetry_space_group_name_H-M   'P 1'
_cell_length_a   5.29514379
_cell_length_b   5.57395445
_cell_length_c   5.56661427
_cell_angle_alpha   119.64379391
_cell_angle_beta   89.76289761
_cell_angle_gamma   89.79352788
_symmetry_Int_Tables_number   1
_chemical_formula_structural   LiGe2N3
_chemical_formula_sum   'Li2 Ge4 N6'
_cell_volume   142.78997444
_cell_formula_units_Z   2
loop_
 _symmetry_equiv_pos_site_id
 _symmetry_equiv_pos_as_xyz
  1  'x, y, z'
loop_
 _atom_site_type_symbol
 _atom_site_label
 _atom_site_symmetry_multiplicity
 _atom_site_fract_x
 _atom_site_fract_y
 _atom_site_fract_z
 _atom_site_occupancy
  Ge  Ge0  1  0.09543210  0.65459492  0.97125748  1
  Ge  Ge1  1  0.95519393  0.98471488  0.65355159  1
  Ge  Ge2  1  0.46100854  0.99416984  0.32919165  1
  Ge  Ge3  1  0.45807983  0.30417562  0.99263059  1
  N  N4  1  0.05226592  0.67761908  0.66506277  1
  N  N5  1  0.09259580  0.30468304  0.94857411  1
  N  N6  1  0.09024047  0.96881011  0.33190652  1
  N  N7  1  0.56512536  0.28074384  0.28711904  1
  N  N8  1  0.48824703  0.64727425  0.01012056  1
  N  N9  1  0.59654608  0.02010578  0.65305596  1
  Li  Li10  1  0.95255976  0.32049663  0.32115982  1
  Li  Li11  1  0.48797092  0.64260570  0.63636468  1
