# generated using pymatgen
data_LiGe2N3
_symmetry_space_group_name_H-M   'P 1'
_cell_length_a   5.56800686
_cell_length_b   5.56967912
_cell_length_c   5.27750055
_cell_angle_alpha   89.79575445
_cell_angle_beta   90.21220352
_cell_angle_gamma   60.25827613
_symmetry_Int_Tables_number   1
_chemical_formula_structural   LiGe2N3
_chemical_formula_sum   'Li2 Ge4 N6'
_cell_volume   142.10255180
_cell_formula_units_Z   2
loop_
 _symmetry_equiv_pos_site_id
 _symmetry_equiv_pos_as_xyz
  1  'x, y, z'
loop_
 _atom_site_type_symbol
 _atom_site_label
 _atom_site_symmetry_multiplicity
 _atom_site_fract_x
 _atom_site_fract_y
 _atom_site_fract_z
 _atom_site_occupancy
  Ge  Ge0  1  -0.97207420  0.65457273  0.07440771  1
  Ge  Ge1  1  -0.65328820  0.98499752  0.95403870  1
  Ge  Ge2  1  -0.32517981  0.99027537  0.46294814  1
  Ge  Ge3  1  -0.99383709  0.30835019  0.46042460  1
  N  N4  1  -0.66542797  0.67850883  0.05513353  1
  N  N5  1  -0.94850679  0.30646000  0.09298832  1
  N  N6  1  -0.33036200  0.96586177  0.09085397  1
  N  N7  1  -0.28759602  0.28078363  0.56391973  1
  N  N8  1  -0.01072677  0.64694451  0.50853974  1
  N  N9  1  -0.65323548  0.02016154  0.59553350  1
  Li  Li10  1  -0.32088011  0.32055238  0.95273714  1
  Li  Li11  1  -0.63888031  0.64252522  0.48374064  1
