# generated using pymatgen
data_LiGe2N3
_symmetry_space_group_name_H-M   'P 1'
_cell_length_a   5.13633004
_cell_length_b   5.55496138
_cell_length_c   5.55411245
_cell_angle_alpha   119.84861212
_cell_angle_beta   89.92431548
_cell_angle_gamma   89.91377617
_symmetry_Int_Tables_number   1
_chemical_formula_structural   LiGe2N3
_chemical_formula_sum   'Li2 Ge4 N6'
_cell_volume   137.44787403
_cell_formula_units_Z   2
loop_
 _symmetry_equiv_pos_site_id
 _symmetry_equiv_pos_as_xyz
  1  'x, y, z'
loop_
 _atom_site_type_symbol
 _atom_site_label
 _atom_site_symmetry_multiplicity
 _atom_site_fract_x
 _atom_site_fract_y
 _atom_site_fract_z
 _atom_site_occupancy
  Ge  Ge0  1  0.96306958  0.65348572  0.98040561  1
  Ge  Ge1  1  0.96303030  0.98053164  0.65344604  1
  Ge  Ge2  1  0.46281395  0.98630896  0.31339848  1
  Ge  Ge3  1  0.46283502  0.31336520  0.98644339  1
  N  N4  1  0.06407143  0.68455740  0.68443591  1
  N  N5  1  0.09560912  0.31891120  0.94478852  1
  N  N6  1  0.09556455  0.94488164  0.31882388  1
  N  N7  1  0.56388761  0.28171343  0.28184898  1
  N  N8  1  0.59569116  0.64759590  0.02191421  1
  N  N9  1  0.59565223  0.02185585  0.64771360  1
  Li  Li10  1  0.96584235  0.32453814  0.32444258  1
  Li  Li11  1  0.46725662  0.64224869  0.64233351  1
