# generated using pymatgen
data_LiGe2N3
_symmetry_space_group_name_H-M   'P 1'
_cell_length_a   5.47228897
_cell_length_b   5.54644559
_cell_length_c   5.55651909
_cell_angle_alpha   119.60070180
_cell_angle_beta   89.30288667
_cell_angle_gamma   90.67707938
_symmetry_Int_Tables_number   1
_chemical_formula_structural   LiGe2N3
_chemical_formula_sum   'Li2 Ge4 N6'
_cell_volume   146.62525761
_cell_formula_units_Z   2
loop_
 _symmetry_equiv_pos_site_id
 _symmetry_equiv_pos_as_xyz
  1  'x, y, z'
loop_
 _atom_site_type_symbol
 _atom_site_label
 _atom_site_symmetry_multiplicity
 _atom_site_fract_x
 _atom_site_fract_y
 _atom_site_fract_z
 _atom_site_occupancy
  Ge  Ge0  1  0.10394006  0.66306477  0.98369643  1
  Ge  Ge1  1  0.95080800  0.97946727  0.66626931  1
  Ge  Ge2  1  0.60530942  0.98240450  0.30293082  1
  Ge  Ge3  1  0.45065816  0.30196804  0.98805152  1
  N  N4  1  0.04008806  0.67084229  0.67107763  1
  N  N5  1  0.10359852  0.29810799  0.93916493  1
  N  N6  1  0.95129446  0.93062404  0.30177671  1
  N  N7  1  0.56263953  0.29735967  0.28887129  1
  N  N8  1  0.45069674  0.66671387  0.03331083  1
  N  N9  1  0.60261815  0.03117568  0.66780396  1
  Li  Li10  1  0.96455823  0.33308223  0.31580079  1
  Li  Li11  1  0.50384876  0.64518463  0.64123816  1
