# generated using pymatgen
data_LiGe2N3
_symmetry_space_group_name_H-M   'P 1'
_cell_length_a   5.55411245
_cell_length_b   5.55496138
_cell_length_c   5.13633004
_cell_angle_alpha   89.91377617
_cell_angle_beta   90.07568452
_cell_angle_gamma   60.15138788
_symmetry_Int_Tables_number   1
_chemical_formula_structural   LiGe2N3
_chemical_formula_sum   'Li2 Ge4 N6'
_cell_volume   137.44787403
_cell_formula_units_Z   2
loop_
 _symmetry_equiv_pos_site_id
 _symmetry_equiv_pos_as_xyz
  1  'x, y, z'
loop_
 _atom_site_type_symbol
 _atom_site_label
 _atom_site_symmetry_multiplicity
 _atom_site_fract_x
 _atom_site_fract_y
 _atom_site_fract_z
 _atom_site_occupancy
  Ge  Ge0  1  -0.98040561  0.65348572  0.96306958  1
  Ge  Ge1  1  -0.65344604  0.98053164  0.96303030  1
  Ge  Ge2  1  -0.31339848  0.98630896  0.46281395  1
  Ge  Ge3  1  -0.98644339  0.31336520  0.46283502  1
  N  N4  1  -0.68443591  0.68455740  0.06407143  1
  N  N5  1  -0.94478852  0.31891120  0.09560912  1
  N  N6  1  -0.31882388  0.94488164  0.09556455  1
  N  N7  1  -0.28184898  0.28171343  0.56388761  1
  N  N8  1  -0.02191421  0.64759590  0.59569116  1
  N  N9  1  -0.64771360  0.02185585  0.59565223  1
  Li  Li10  1  -0.32444258  0.32453814  0.96584235  1
  Li  Li11  1  -0.64233351  0.64224869  0.46725662  1
