# generated using pymatgen
data_LiGe2N3
_symmetry_space_group_name_H-M   'P 1'
_cell_length_a   5.56146834
_cell_length_b   5.58318460
_cell_length_c   5.33086472
_cell_angle_alpha   90.56750144
_cell_angle_beta   90.33117446
_cell_angle_gamma   60.32642358
_symmetry_Int_Tables_number   1
_chemical_formula_structural   LiGe2N3
_chemical_formula_sum   'Li2 Ge4 N6'
_cell_volume   143.81273839
_cell_formula_units_Z   2
loop_
 _symmetry_equiv_pos_site_id
 _symmetry_equiv_pos_as_xyz
  1  'x, y, z'
loop_
 _atom_site_type_symbol
 _atom_site_label
 _atom_site_symmetry_multiplicity
 _atom_site_fract_x
 _atom_site_fract_y
 _atom_site_fract_z
 _atom_site_occupancy
  Ge  Ge0  1  -0.97741180  0.65601447  0.10041708  1
  Ge  Ge1  1  -0.65293436  0.97813813  0.95867235  1
  Ge  Ge2  1  -0.32679460  0.99596698  0.48189112  1
  Ge  Ge3  1  -0.98860558  0.30105147  0.45481330  1
  N  N4  1  -0.66768521  0.67538859  0.05661256  1
  N  N5  1  -0.94721753  0.30080629  0.09537981  1
  N  N6  1  -0.32882351  0.96834671  0.07287658  1
  N  N7  1  -0.28839909  0.28892000  0.56657456  1
  N  N8  1  -0.01167686  0.64884369  0.47710569  1
  N  N9  1  -0.65554301  0.01947645  0.59956887  1
  Li  Li10  1  -0.32200141  0.32191297  0.95811926  1
  Li  Li11  1  -0.63290179  0.64512798  0.47319613  1
