# generated using pymatgen
data_LiGe2N3
_symmetry_space_group_name_H-M   'P 1'
_cell_length_a   5.55060468
_cell_length_b   5.55187327
_cell_length_c   5.18926494
_cell_angle_alpha   89.88302311
_cell_angle_beta   90.30615007
_cell_angle_gamma   60.19609043
_symmetry_Int_Tables_number   1
_chemical_formula_structural   LiGe2N3
_chemical_formula_sum   'Li2 Ge4 N6'
_cell_volume   138.75815146
_cell_formula_units_Z   2
loop_
 _symmetry_equiv_pos_site_id
 _symmetry_equiv_pos_as_xyz
  1  'x, y, z'
loop_
 _atom_site_type_symbol
 _atom_site_label
 _atom_site_symmetry_multiplicity
 _atom_site_fract_x
 _atom_site_fract_y
 _atom_site_fract_z
 _atom_site_occupancy
  Ge  Ge0  1  -0.97836328  0.65403241  0.97608117  1
  Ge  Ge1  1  -0.65323540  0.98254265  0.95996367  1
  Ge  Ge2  1  -0.31654083  0.98548460  0.46322245  1
  Ge  Ge3  1  -0.99084717  0.31379959  0.46271360  1
  N  N4  1  -0.67556381  0.68114446  0.06236557  1
  N  N5  1  -0.94776379  0.31655902  0.09607131  1
  N  N6  1  -0.32083929  0.95259751  0.09507944  1
  N  N7  1  -0.28514220  0.28117170  0.56366218  1
  N  N8  1  -0.01684830  0.64711499  0.58725975  1
  N  N9  1  -0.65090400  0.02091871  0.59558899  1
  Li  Li10  1  -0.32170492  0.32212832  0.95689728  1
  Li  Li11  1  -0.64224175  0.64249975  0.47636034  1
