# generated using pymatgen
data_LiGe2N3
_symmetry_space_group_name_H-M   'P 1'
_cell_length_a   5.25985303
_cell_length_b   5.56596759
_cell_length_c   5.56585587
_cell_angle_alpha   119.76828908
_cell_angle_beta   89.76787817
_cell_angle_gamma   89.81242581
_symmetry_Int_Tables_number   1
_chemical_formula_structural   LiGe2N3
_chemical_formula_sum   'Li2 Ge4 N6'
_cell_volume   141.44075021
_cell_formula_units_Z   2
loop_
 _symmetry_equiv_pos_site_id
 _symmetry_equiv_pos_as_xyz
  1  'x, y, z'
loop_
 _atom_site_type_symbol
 _atom_site_label
 _atom_site_symmetry_multiplicity
 _atom_site_fract_x
 _atom_site_fract_y
 _atom_site_fract_z
 _atom_site_occupancy
  Ge  Ge0  1  0.05054827  0.65454261  0.97327931  1
  Ge  Ge1  1  0.95416142  0.98493051  0.65315831  1
  Ge  Ge2  1  0.46381260  0.98800881  0.32246843  1
  Ge  Ge3  1  0.46173084  0.31078336  0.99408650  1
  N  N4  1  0.05721414  0.67898625  0.66638710  1
  N  N5  1  0.09383814  0.30822885  0.94845181  1
  N  N6  1  0.09186535  0.96349962  0.32862135  1
  N  N7  1  0.56363447  0.28068406  0.28748021  1
  N  N8  1  0.52748274  0.64681336  0.01201202  1
  N  N9  1  0.59533025  0.02036054  0.65321067  1
  Li  Li10  1  0.95308486  0.32070467  0.32082411  1
  Li  Li11  1  0.48256265  0.64245105  0.64001493  1
