# generated using pymatgen
data_LiGe2N3
_symmetry_space_group_name_H-M   'P 1'
_cell_length_a   5.56391460
_cell_length_b   5.57992363
_cell_length_c   5.41914087
_cell_angle_alpha   90.56984059
_cell_angle_beta   90.39289344
_cell_angle_gamma   60.10918183
_symmetry_Int_Tables_number   1
_chemical_formula_structural   LiGe2N3
_chemical_formula_sum   'Li2 Ge4 N6'
_cell_volume   145.85590427
_cell_formula_units_Z   2
loop_
 _symmetry_equiv_pos_site_id
 _symmetry_equiv_pos_as_xyz
  1  'x, y, z'
loop_
 _atom_site_type_symbol
 _atom_site_label
 _atom_site_symmetry_multiplicity
 _atom_site_fract_x
 _atom_site_fract_y
 _atom_site_fract_z
 _atom_site_occupancy
  Ge  Ge0  1  -0.98560515  0.66384871  0.10489700  1
  Ge  Ge1  1  -0.66195825  0.97733747  0.95671234  1
  Ge  Ge2  1  -0.30690459  0.98375165  0.59386885  1
  Ge  Ge3  1  -0.98702753  0.29900570  0.45104080  1
  N  N4  1  -0.66991535  0.67507317  0.05988669  1
  N  N5  1  -0.94522722  0.30182713  0.09925459  1
  N  N6  1  -0.31010395  0.94934161  0.97414268  1
  N  N7  1  -0.29047915  0.29567088  0.56082454  1
  N  N8  1  -0.02382069  0.65759875  0.46210442  1
  N  N9  1  -0.66453585  0.02204837  0.60115610  1
  Li  Li10  1  -0.32193636  0.32894699  0.96266705  1
  Li  Li11  1  -0.63248064  0.64554326  0.46867225  1
