# generated using pymatgen
data_ScAl17N18
_symmetry_space_group_name_H-M   'P 1'
_cell_length_a   9.64520908
_cell_length_b   9.64259003
_cell_length_c   9.58065624
_cell_angle_alpha   89.99999884
_cell_angle_beta   90.01846603
_cell_angle_gamma   60.01346846
_symmetry_Int_Tables_number   1
_chemical_formula_structural   ScAl17N18
_chemical_formula_sum   'Sc2 Al34 N36'
_cell_volume   771.77398167
_cell_formula_units_Z   2
loop_
 _symmetry_equiv_pos_site_id
 _symmetry_equiv_pos_as_xyz
  1  'x, y, z'
loop_
 _atom_site_type_symbol
 _atom_site_label
 _atom_site_symmetry_multiplicity
 _atom_site_fract_x
 _atom_site_fract_y
 _atom_site_fract_z
 _atom_site_occupancy
  Al  Al0  1  0.11171217  0.09345707  0.38014192  1
  Al  Al1  1  0.21786900  0.20542674  0.13013886  1
  Al  Al2  1  0.78576561  0.09088280  0.87515670  1
  Al  Al3  1  0.88978207  0.20645978  0.62759037  1
  Al  Al4  1  0.44034333  0.10195669  0.37905670  1
  Al  Al5  1  0.11001831  0.09554843  0.87977425  1
  Al  Al6  1  0.21786744  0.21004223  0.63013974  1
  Al  Al7  1  0.77809145  0.09422464  0.38292255  1
  Al  Al8  1  0.89292852  0.20436538  0.13178160  1
  Al  Al9  1  0.44034440  0.09103064  0.87905617  1
  Al  Al10  1  0.55439182  0.20927799  0.63296807  1
  Al  Al11  1  0.11001825  0.42776370  0.37977389  1
  Al  Al12  1  0.21945299  0.54286507  0.13203519  1
  Al  Al13  1  0.77798325  0.42714262  0.87941536  1
  Al  Al14  1  0.89292819  0.53604046  0.63178184  1
  Al  Al15  1  0.44498735  0.42780747  0.38321246  1
  Al  Al16  1  0.55514698  0.54113219  0.12985063  1
  Al  Al17  1  0.11171201  0.42816141  0.88014214  1
  Al  Al18  1  0.22030111  0.53975344  0.62721056  1
  Al  Al19  1  0.77798373  0.42820286  0.37941550  1
  Al  Al20  1  0.88978209  0.53709227  0.12759004  1
  Al  Al21  1  0.43949638  0.43606850  0.87568630  1
  Al  Al22  1  0.55514810  0.53705778  0.62985032  1
  Al  Al23  1  0.11112215  0.76244822  0.38027059  1
  Al  Al24  1  0.22030148  0.87328289  0.12721124  1
  Al  Al25  1  0.77809200  0.76101277  0.88292278  1
  Al  Al26  1  0.89375395  0.86910999  0.62992315  1
  Al  Al27  1  0.43949795  0.75776563  0.37568590  1
  Al  Al28  1  0.55439317  0.86966742  0.13296804  1
  Al  Al29  1  0.11112216  0.75976042  0.88027003  1
  Al  Al30  1  0.21945483  0.87101833  0.63203493  1
  Al  Al31  1  0.78576580  0.75667960  0.37515678  1
  Al  Al32  1  0.89375366  0.87047065  0.12992377  1
  Al  Al33  1  0.44498767  0.76053596  0.88321270  1
  Sc  Sc34  1  0.55663798  0.20659350  0.11253272  1
  Sc  Sc35  1  0.55663815  0.87011099  0.61253313  1
  N  N36  1  0.21976337  0.20667117  0.32891837  1
  N  N37  1  0.11006832  0.09547048  0.07867343  1
  N  N38  1  0.89009025  0.20703199  0.82564586  1
  N  N39  1  0.77781620  0.09356722  0.58379082  1
  N  N40  1  0.55701907  0.20674100  0.33589039  1
  N  N41  1  0.43306428  0.08416841  0.07800513  1
  N  N42  1  0.21976402  0.20690595  0.82891994  1
  N  N43  1  0.11262228  0.09293365  0.57965021  1
  N  N44  1  0.88904212  0.20541528  0.33217026  1
  N  N45  1  0.80122152  0.08359363  0.07276558  1
  N  N46  1  0.55544312  0.20576401  0.83960332  1
  N  N47  1  0.43306140  0.11609657  0.57800451  1
  N  N48  1  0.22225547  0.53901789  0.33231075  1
  N  N49  1  0.11262242  0.42777015  0.07965013  1
  N  N50  1  0.88904195  0.53888159  0.83217083  1
  N  N51  1  0.77758568  0.42949685  0.57913802  1
  N  N52  1  0.55679929  0.53628900  0.32854109  1
  N  N53  1  0.43195387  0.45116418  0.07312418  1
  N  N54  1  0.21947173  0.54012129  0.82580116  1
  N  N55  1  0.11006786  0.42778788  0.57867342  1
  N  N56  1  0.89009054  0.53621652  0.32564520  1
  N  N57  1  0.77758450  0.42624101  0.07913797  1
  N  N58  1  0.55679922  0.54025313  0.82854068  1
  N  N59  1  0.44434929  0.42812476  0.58331169  1
  N  N60  1  0.21947323  0.87374727  0.32580220  1
  N  N61  1  0.11132205  0.76010302  0.07897471  1
  N  N62  1  0.89009050  0.86945170  0.82857839  1
  N  N63  1  0.80122167  0.74850736  0.57276557  1
  N  N64  1  0.55544337  0.87213388  0.33960323  1
  N  N65  1  0.44434948  0.76085316  0.08331208  1
  N  N66  1  0.22225615  0.87206727  0.83231013  1
  N  N67  1  0.11132255  0.76190190  0.57897460  1
  N  N68  1  0.89009016  0.87379698  0.32857961  1
  N  N69  1  0.77781753  0.76193946  0.08379086  1
  N  N70  1  0.55701923  0.86958140  0.83589084  1
  N  N71  1  0.43195691  0.75020834  0.57312507  1
