# generated using pymatgen
data_ScAl17N18
_symmetry_space_group_name_H-M   'P 1'
_cell_length_a   9.59016672
_cell_length_b   9.58800066
_cell_length_c   9.74012259
_cell_angle_alpha   90.00000478
_cell_angle_beta   90.01870265
_cell_angle_gamma   60.01169252
_symmetry_Int_Tables_number   1
_chemical_formula_structural   ScAl17N18
_chemical_formula_sum   'Sc2 Al34 N36'
_cell_volume   775.71179272
_cell_formula_units_Z   2
loop_
 _symmetry_equiv_pos_site_id
 _symmetry_equiv_pos_as_xyz
  1  'x, y, z'
loop_
 _atom_site_type_symbol
 _atom_site_label
 _atom_site_symmetry_multiplicity
 _atom_site_fract_x
 _atom_site_fract_y
 _atom_site_fract_z
 _atom_site_occupancy
  Al  Al0  1  0.11153837  0.09366524  0.38149757  1
  Al  Al1  1  0.21796372  0.20536576  0.13159376  1
  Al  Al2  1  0.78553073  0.09088835  0.87723542  1
  Al  Al3  1  0.88969405  0.20633355  0.62960335  1
  Al  Al4  1  0.44047890  0.10187423  0.38094678  1
  Al  Al5  1  0.11025524  0.09530278  0.88131221  1
  Al  Al6  1  0.21796199  0.21000822  0.63159453  1
  Al  Al7  1  0.77804597  0.09432019  0.38422036  1
  Al  Al8  1  0.89298380  0.20436642  0.13274031  1
  Al  Al9  1  0.44048007  0.09097832  0.88094655  1
  Al  Al10  1  0.55437594  0.20933730  0.63485536  1
  Al  Al11  1  0.11025506  0.42777287  0.38131188  1
  Al  Al12  1  0.21937556  0.54295371  0.13298960  1
  Al  Al13  1  0.77796884  0.42733616  0.88086567  1
  Al  Al14  1  0.89298325  0.53598319  0.63274059  1
  Al  Al15  1  0.44490041  0.42778026  0.38458873  1
  Al  Al16  1  0.55505918  0.54140612  0.13130051  1
  Al  Al17  1  0.11153813  0.42812744  0.88149777  1
  Al  Al18  1  0.22051077  0.53966009  0.62917018  1
  Al  Al19  1  0.77796935  0.42802361  0.38086571  1
  Al  Al20  1  0.88969405  0.53730544  0.12960304  1
  Al  Al21  1  0.43973425  0.43585993  0.87767153  1
  Al  Al22  1  0.55506061  0.53687143  0.63130034  1
  Al  Al23  1  0.11111995  0.76220146  0.38171383  1
  Al  Al24  1  0.22051131  0.87316609  0.12917083  1
  Al  Al25  1  0.77804665  0.76096275  0.88422059  1
  Al  Al26  1  0.89372156  0.86932689  0.63137168  1
  Al  Al27  1  0.43973608  0.75773697  0.37767138  1
  Al  Al28  1  0.55437766  0.86962376  0.13485546  1
  Al  Al29  1  0.11111990  0.76000991  0.88171330  1
  Al  Al30  1  0.21937770  0.87100665  0.63298942  1
  Al  Al31  1  0.78553104  0.75690886  0.37723557  1
  Al  Al32  1  0.89372113  0.87028532  0.13137232  1
  Al  Al33  1  0.44490089  0.76065092  0.88458889  1
  Sc  Sc34  1  0.55651835  0.20657873  0.11546414  1
  Sc  Sc35  1  0.55651861  0.87024583  0.61546443  1
  N  N36  1  0.21994814  0.20662866  0.32729015  1
  N  N37  1  0.11031468  0.09523253  0.07713793  1
  N  N38  1  0.89004164  0.20691742  0.82462456  1
  N  N39  1  0.77776864  0.09367598  0.58191737  1
  N  N40  1  0.55694506  0.20670319  0.33451846  1
  N  N41  1  0.43306847  0.08399084  0.07610798  1
  N  N42  1  0.21994884  0.20676359  0.82729163  1
  N  N43  1  0.11242067  0.09314237  0.57800145  1
  N  N44  1  0.88901013  0.20541155  0.32995961  1
  N  N45  1  0.80119303  0.08345020  0.07121041  1
  N  N46  1  0.55541700  0.20575273  0.83796606  1
  N  N47  1  0.43306513  0.11627104  0.57610706  1
  N  N48  1  0.22229422  0.53898257  0.33015037  1
  N  N49  1  0.11242076  0.42776301  0.07800139  1
  N  N50  1  0.88900989  0.53891673  0.82996021  1
  N  N51  1  0.77757148  0.42924896  0.57756894  1
  N  N52  1  0.55670755  0.53639526  0.32690850  1
  N  N53  1  0.43205312  0.45123327  0.07148012  1
  N  N54  1  0.21962063  0.54007962  0.82470741  1
  N  N55  1  0.11031398  0.42777968  0.57713792  1
  N  N56  1  0.89004183  0.53637912  0.32462392  1
  N  N57  1  0.77757015  0.42650252  0.07756899  1
  N  N58  1  0.55670750  0.54023873  0.82690816  1
  N  N59  1  0.44428142  0.42804869  0.58145540  1
  N  N60  1  0.21962233  0.87363982  0.32470845  1
  N  N61  1  0.11131827  0.76033295  0.07735887  1
  N  N62  1  0.89001198  0.86959996  0.82695444  1
  N  N63  1  0.80119328  0.74867881  0.57121044  1
  N  N64  1  0.55541742  0.87217153  0.33796604  1
  N  N65  1  0.44428179  0.76099767  0.08145572  1
  N  N66  1  0.22229504  0.87206375  0.83014983  1
  N  N67  1  0.11131894  0.76167587  0.57735878  1
  N  N68  1  0.89001168  0.87372676  0.32695569  1
  N  N69  1  0.77777021  0.76187756  0.08191739  1
  N  N70  1  0.55694537  0.86969359  0.83451892  1
  N  N71  1  0.43205680  0.75004059  0.57148125  1
