# generated using pymatgen
data_ScAl17N18
_symmetry_space_group_name_H-M   'P 1'
_cell_length_a   9.97570902
_cell_length_b   9.97013389
_cell_length_c   8.56517166
_cell_angle_alpha   89.99999868
_cell_angle_beta   90.01066977
_cell_angle_gamma   60.01813162
_symmetry_Int_Tables_number   1
_chemical_formula_structural   ScAl17N18
_chemical_formula_sum   'Sc2 Al34 N36'
_cell_volume   737.88855730
_cell_formula_units_Z   2
loop_
 _symmetry_equiv_pos_site_id
 _symmetry_equiv_pos_as_xyz
  1  'x, y, z'
loop_
 _atom_site_type_symbol
 _atom_site_label
 _atom_site_symmetry_multiplicity
 _atom_site_fract_x
 _atom_site_fract_y
 _atom_site_fract_z
 _atom_site_occupancy
  Al  Al0  1  0.11167136  0.09348607  0.36226372  1
  Al  Al1  1  0.21763153  0.20600612  0.11131388  1
  Al  Al2  1  0.78295477  0.09248311  0.85546027  1
  Al  Al3  1  0.88988141  0.20652049  0.60956140  1
  Al  Al4  1  0.44011490  0.09717234  0.35827742  1
  Al  Al5  1  0.10992107  0.09544325  0.86123371  1
  Al  Al6  1  0.21763173  0.20969514  0.61131345  1
  Al  Al7  1  0.78129990  0.09258096  0.36515326  1
  Al  Al8  1  0.89248021  0.20504632  0.11381283  1
  Al  Al9  1  0.44011480  0.09604557  0.85827740  1
  Al  Al10  1  0.55479413  0.20886547  0.60765533  1
  Al  Al11  1  0.10992121  0.42796940  0.36123384  1
  Al  Al12  1  0.21927504  0.54231451  0.11398134  1
  Al  Al13  1  0.77799070  0.42693580  0.86145355  1
  Al  Al14  1  0.89248032  0.53580768  0.61381262  1
  Al  Al15  1  0.44302762  0.43106480  0.36463075  1
  Al  Al16  1  0.55568174  0.54058999  0.11138473  1
  Al  Al17  1  0.11167150  0.42817603  0.86226350  1
  Al  Al18  1  0.22017665  0.53985526  0.60949174  1
  Al  Al19  1  0.77799061  0.42840831  0.36145351  1
  Al  Al20  1  0.88988151  0.53693227  0.10956150  1
  Al  Al21  1  0.44108522  0.43286398  0.85605745  1
  Al  Al22  1  0.55568166  0.53706070  0.61138488  1
  Al  Al23  1  0.11131401  0.76212811  0.36202090  1
  Al  Al24  1  0.22017623  0.87330115  0.10949161  1
  Al  Al25  1  0.78129961  0.75945373  0.86515323  1
  Al  Al26  1  0.89347283  0.86957031  0.61158476  1
  Al  Al27  1  0.44108469  0.75938375  0.35605747  1
  Al  Al28  1  0.55479372  0.86967272  0.10765531  1
  Al  Al29  1  0.11131404  0.75989115  0.86202119  1
  Al  Al30  1  0.21927449  0.87174340  0.61398157  1
  Al  Al31  1  0.78295453  0.75789686  0.35546018  1
  Al  Al32  1  0.89347284  0.87029080  0.11158442  1
  Al  Al33  1  0.44302716  0.75924060  0.86463076  1
  Sc  Sc34  1  0.55696273  0.20637211  0.10453151  1
  Sc  Sc35  1  0.55696257  0.86999688  0.60453148  1
  N  N36  1  0.21912675  0.20691929  0.34771229  1
  N  N37  1  0.10981381  0.09545353  0.09690599  1
  N  N38  1  0.88980848  0.20678444  0.84296870  1
  N  N39  1  0.77939838  0.09288630  0.60047451  1
  N  N40  1  0.55673786  0.20636763  0.35911943  1
  N  N41  1  0.43423179  0.08759816  0.09928383  1
  N  N42  1  0.21912680  0.20728657  0.84771173  1
  N  N43  1  0.11251307  0.09287705  0.59780772  1
  N  N44  1  0.88948233  0.20596240  0.35148248  1
  N  N45  1  0.79721550  0.08574645  0.09487805  1
  N  N46  1  0.55611877  0.20610870  0.84495569  1
  N  N47  1  0.43423223  0.11150283  0.59928368  1
  N  N48  1  0.22125891  0.53945981  0.35101170  1
  N  N49  1  0.11251314  0.42794364  0.09780774  1
  N  N50  1  0.88948246  0.53788901  0.85148230  1
  N  N51  1  0.77773000  0.42955355  0.59731625  1
  N  N52  1  0.55697408  0.53741792  0.34732302  1
  N  N53  1  0.43402048  0.44671092  0.09538930  1
  N  N54  1  0.22014271  0.53976519  0.84356631  1
  N  N55  1  0.10981398  0.42806664  0.59690602  1
  N  N56  1  0.88980860  0.53674092  0.34296892  1
  N  N57  1  0.77773018  0.42605169  0.09731635  1
  N  N58  1  0.55697412  0.53893999  0.84732318  1
  N  N59  1  0.44350917  0.42958450  0.60015199  1
  N  N60  1  0.22014222  0.87342485  0.34356604  1
  N  N61  1  0.11153726  0.75994790  0.09717080  1
  N  N62  1  0.89041528  0.87051024  0.84721912  1
  N  N63  1  0.79721524  0.75037338  0.59487813  1
  N  N64  1  0.55611854  0.87110435  0.34495570  1
  N  N65  1  0.44350874  0.76023965  0.10015188  1
  N  N66  1  0.22125839  0.87261409  0.85101188  1
  N  N67  1  0.11153716  0.76184840  0.59717079  1
  N  N68  1  0.89041528  0.87240800  0.34721869  1
  N  N69  1  0.77939795  0.76105048  0.10047446  1
  N  N70  1  0.55673758  0.87022647  0.85911939  1
  N  N71  1  0.43401975  0.75260185  0.59538933  1
