# generated using pymatgen
data_ScAl17N18
_symmetry_space_group_name_H-M   'P 1'
_cell_length_a   9.50095814
_cell_length_b   9.49854695
_cell_length_c   9.98867780
_cell_angle_alpha   89.99999600
_cell_angle_beta   90.02246280
_cell_angle_gamma   60.00845679
_symmetry_Int_Tables_number   1
_chemical_formula_structural   ScAl17N18
_chemical_formula_sum   'Sc2 Al34 N36'
_cell_volume   780.72875129
_cell_formula_units_Z   2
loop_
 _symmetry_equiv_pos_site_id
 _symmetry_equiv_pos_as_xyz
  1  'x, y, z'
loop_
 _atom_site_type_symbol
 _atom_site_label
 _atom_site_symmetry_multiplicity
 _atom_site_fract_x
 _atom_site_fract_y
 _atom_site_fract_z
 _atom_site_occupancy
  Al  Al0  1  0.11119736  0.09406047  0.38640845  1
  Al  Al1  1  0.21812961  0.20547599  0.13676106  1
  Al  Al2  1  0.78403137  0.09143364  0.88289925  1
  Al  Al3  1  0.88963908  0.20613736  0.63582330  1
  Al  Al4  1  0.44086066  0.10015483  0.38718488  1
  Al  Al5  1  0.11067069  0.09488040  0.88645905  1
  Al  Al6  1  0.21812990  0.20972870  0.63675999  1
  Al  Al7  1  0.77879734  0.09402987  0.38993482  1
  Al  Al8  1  0.89290472  0.20442046  0.13678934  1
  Al  Al9  1  0.44086098  0.09231808  0.88718497  1
  Al  Al10  1  0.55440169  0.20913590  0.63874315  1
  Al  Al11  1  0.11067070  0.42778278  0.38645899  1
  Al  Al12  1  0.21941091  0.54291793  0.13699239  1
  Al  Al13  1  0.77788830  0.42771625  0.88591824  1
  Al  Al14  1  0.89290599  0.53600812  0.63678863  1
  Al  Al15  1  0.44428892  0.42853715  0.39033322  1
  Al  Al16  1  0.55490222  0.54162473  0.13639578  1
  Al  Al17  1  0.11119697  0.42807645  0.88640846  1
  Al  Al18  1  0.22069212  0.53957101  0.63528722  1
  Al  Al19  1  0.77788817  0.42772960  0.38591761  1
  Al  Al20  1  0.88963953  0.53755611  0.13582399  1
  Al  Al21  1  0.44073182  0.43431929  0.88312995  1
  Al  Al22  1  0.55490211  0.53680638  0.63639578  1
  Al  Al23  1  0.11114948  0.76171542  0.38667101  1
  Al  Al24  1  0.22069279  0.87306918  0.13528755  1
  Al  Al25  1  0.77879762  0.76050594  0.88993391  1
  Al  Al26  1  0.89364127  0.86952489  0.63648056  1
  Al  Al27  1  0.44073234  0.75828189  0.38312920  1
  Al  Al28  1  0.55440133  0.86979528  0.13874292  1
  Al  Al29  1  0.11114938  0.76046803  0.88667110  1
  Al  Al30  1  0.21941108  0.87100482  0.63699221  1
  Al  Al31  1  0.78403164  0.75786788  0.38290015  1
  Al  Al32  1  0.89364215  0.87016679  0.13648054  1
  Al  Al33  1  0.44428928  0.76050712  0.89033368  1
  Sc  Sc34  1  0.55651197  0.20676084  0.12689461  1
  Sc  Sc35  1  0.55651381  0.87005815  0.62689512  1
  N  N36  1  0.22033900  0.20645723  0.32839603  1
  N  N37  1  0.11078833  0.09481620  0.07826433  1
  N  N38  1  0.88988072  0.20675081  0.82676624  1
  N  N39  1  0.77839915  0.09352596  0.58289672  1
  N  N40  1  0.55681865  0.20650746  0.33946359  1
  N  N41  1  0.43338926  0.08521266  0.07712191  1
  N  N42  1  0.22033916  0.20653612  0.82839676  1
  N  N43  1  0.11193389  0.09355509  0.57899197  1
  N  N44  1  0.88890647  0.20537887  0.32993217  1
  N  N45  1  0.79988486  0.08381714  0.07226617  1
  N  N46  1  0.55539072  0.20567686  0.83642404  1
  N  N47  1  0.43338892  0.11473114  0.57712237  1
  N  N48  1  0.22241483  0.53887682  0.33012978  1
  N  N49  1  0.11193379  0.42784365  0.07899167  1
  N  N50  1  0.88890609  0.53904769  0.82993285  1
  N  N51  1  0.77750436  0.42875489  0.57868135  1
  N  N52  1  0.55646326  0.53662557  0.32794905  1
  N  N53  1  0.43290509  0.45003103  0.07234855  1
  N  N54  1  0.21993192  0.53992486  0.82671311  1
  N  N55  1  0.11078806  0.42772867  0.57826574  1
  N  N56  1  0.88988022  0.53670165  0.32676532  1
  N  N57  1  0.77750489  0.42707321  0.07868097  1
  N  N58  1  0.55646326  0.54024487  0.82794805  1
  N  N59  1  0.44373364  0.42850449  0.58242009  1
  N  N60  1  0.21993169  0.87347705  0.32671294  1
  N  N61  1  0.11136684  0.76080010  0.07832437  1
  N  N62  1  0.88983516  0.86987327  0.82801793  1
  N  N63  1  0.79988373  0.74963155  0.57226597  1
  N  N64  1  0.55539079  0.87226553  0.33642393  1
  N  N65  1  0.44373352  0.76109696  0.08242030  1
  N  N66  1  0.22241470  0.87204195  0.83012926  1
  N  N67  1  0.11136841  0.76116606  0.57832440  1
  N  N68  1  0.88983534  0.87362518  0.32801719  1
  N  N69  1  0.77839876  0.76140890  0.08289738  1
  N  N70  1  0.55681872  0.87000747  0.83946242  1
  N  N71  1  0.43290477  0.75039719  0.57234933  1
