# generated using pymatgen
data_ScAl17N18
_symmetry_space_group_name_H-M   'P 1'
_cell_length_a   9.47239066
_cell_length_b   9.46915827
_cell_length_c   10.06376689
_cell_angle_alpha   89.99999832
_cell_angle_beta   89.97572113
_cell_angle_gamma   60.01129293
_symmetry_Int_Tables_number   1
_chemical_formula_structural   ScAl17N18
_chemical_formula_sum   'Sc2 Al34 N36'
_cell_volume   781.82856515
_cell_formula_units_Z   2
loop_
 _symmetry_equiv_pos_site_id
 _symmetry_equiv_pos_as_xyz
  1  'x, y, z'
loop_
 _atom_site_type_symbol
 _atom_site_label
 _atom_site_symmetry_multiplicity
 _atom_site_fract_x
 _atom_site_fract_y
 _atom_site_fract_z
 _atom_site_occupancy
  Al  Al0  1  0.11075230  0.09478544  0.29553545  1
  Al  Al1  1  0.21822559  0.20541970  0.04528686  1
  Al  Al2  1  0.77915145  0.09383871  0.79177171  1
  Al  Al3  1  0.88958688  0.20611453  0.54593046  1
  Al  Al4  1  0.44096211  0.09302660  0.29443312  1
  Al  Al5  1  0.11110761  0.09414964  0.79552519  1
  Al  Al6  1  0.21822560  0.20968805  0.54528688  1
  Al  Al7  1  0.78341547  0.09170126  0.29890847  1
  Al  Al8  1  0.89296044  0.20436787  0.04550253  1
  Al  Al9  1  0.44096216  0.09934460  0.79443309  1
  Al  Al10  1  0.55437253  0.20910343  0.54361443  1
  Al  Al11  1  0.11110757  0.42807606  0.29552519  1
  Al  Al12  1  0.21946774  0.54289755  0.04536165  1
  Al  Al13  1  0.77785029  0.42770068  0.79599658  1
  Al  Al14  1  0.89296050  0.53600486  0.54550252  1
  Al  Al15  1  0.44112455  0.43363700  0.29865814  1
  Al  Al16  1  0.55484070  0.54172134  0.04566703  1
  Al  Al17  1  0.11075235  0.42779552  0.79553545  1
  Al  Al18  1  0.22079739  0.53950358  0.54648949  1
  Al  Al19  1  0.77785024  0.42778223  0.29599655  1
  Al  Al20  1  0.88958688  0.53763180  0.04593045  1
  Al  Al21  1  0.44401265  0.42891335  0.79149832  1
  Al  Al22  1  0.55484075  0.53677133  0.54566705  1
  Al  Al23  1  0.11117308  0.76057316  0.29535363  1
  Al  Al24  1  0.22079749  0.87303239  0.04648947  1
  Al  Al25  1  0.78341563  0.75821641  0.79890845  1
  Al  Al26  1  0.89366606  0.86952022  0.54559215  1
  Al  Al27  1  0.44401274  0.76040735  0.29149831  1
  Al  Al28  1  0.55437264  0.86985741  0.04361444  1
  Al  Al29  1  0.11117311  0.76158716  0.79535365  1
  Al  Al30  1  0.21946789  0.87096806  0.54536164  1
  Al  Al31  1  0.77915155  0.76034302  0.29177168  1
  Al  Al32  1  0.89366602  0.87014706  0.04559214  1
  Al  Al33  1  0.44112472  0.75857180  0.79865811  1
  Sc  Sc34  1  0.55664827  0.20666589  0.05248915  1
  Sc  Sc35  1  0.55664851  0.87001922  0.55248910  1
  N  N36  1  0.22043262  0.20652656  0.35496708  1
  N  N37  1  0.11093416  0.09467956  0.10515395  1
  N  N38  1  0.88885469  0.20535189  0.85372746  1
  N  N39  1  0.77849230  0.09359317  0.60057451  1
  N  N40  1  0.55537287  0.20563058  0.34822856  1
  N  N41  1  0.43367878  0.08558889  0.10618032  1
  N  N42  1  0.22043268  0.20637410  0.85496707  1
  N  N43  1  0.11164460  0.09377004  0.60446896  1
  N  N44  1  0.88983024  0.20670999  0.35631332  1
  N  N45  1  0.79926111  0.08406174  0.11101760  1
  N  N46  1  0.55672544  0.20642303  0.84302902  1
  N  N47  1  0.43367879  0.11406569  0.60618029  1
  N  N48  1  0.22005119  0.53985796  0.35640061  1
  N  N49  1  0.11164459  0.42791869  0.10446895  1
  N  N50  1  0.88983029  0.53679292  0.85631332  1
  N  N51  1  0.77755868  0.42851409  0.60470178  1
  N  N52  1  0.55637065  0.54023545  0.35541027  1
  N  N53  1  0.43334525  0.44929279  0.11093669  1
  N  N54  1  0.22245148  0.53885778  0.85365365  1
  N  N55  1  0.11093421  0.42771958  0.60515396  1
  N  N56  1  0.88885466  0.53912661  0.35372743  1
  N  N57  1  0.77755864  0.42726044  0.10470176  1
  N  N58  1  0.55637067  0.53672725  0.85541025  1
  N  N59  1  0.44366348  0.42849476  0.60112033  1
  N  N60  1  0.22245156  0.87202408  0.35365364  1
  N  N61  1  0.11140348  0.76091717  0.10514928  1
  N  N62  1  0.88981263  0.87360431  0.85535247  1
  N  N63  1  0.79926131  0.75001028  0.61101759  1
  N  N64  1  0.55672554  0.87018487  0.34302897  1
  N  N65  1  0.44366356  0.76117516  0.10112032  1
  N  N66  1  0.22005137  0.87342415  0.85640059  1
  N  N67  1  0.11140354  0.76101279  0.60514929  1
  N  N68  1  0.88981261  0.86991637  0.35535248  1
  N  N69  1  0.77849241  0.76124773  0.10057449  1
  N  N70  1  0.55537303  0.87232988  0.84822855  1
  N  N71  1  0.43334544  0.75069536  0.61093664  1
