# generated using pymatgen
data_ScAl17N18
_symmetry_space_group_name_H-M   'P 1'
_cell_length_a   9.64482972
_cell_length_b   9.64228216
_cell_length_c   9.58165728
_cell_angle_alpha   89.99998824
_cell_angle_beta   89.98151464
_cell_angle_gamma   60.01382328
_symmetry_Int_Tables_number   1
_chemical_formula_structural   ScAl17N18
_chemical_formula_sum   'Sc2 Al34 N36'
_cell_volume   771.80237695
_cell_formula_units_Z   2
loop_
 _symmetry_equiv_pos_site_id
 _symmetry_equiv_pos_as_xyz
  1  'x, y, z'
loop_
 _atom_site_type_symbol
 _atom_site_label
 _atom_site_symmetry_multiplicity
 _atom_site_fract_x
 _atom_site_fract_y
 _atom_site_fract_z
 _atom_site_occupancy
  Al  Al0  1  0.11001560  0.09555087  0.32870939  1
  Al  Al1  1  0.21786881  0.20542753  0.07834443  1
  Al  Al2  1  0.77809073  0.09422278  0.82556246  1
  Al  Al3  1  0.88978223  0.20646065  0.58089963  1
  Al  Al4  1  0.44034480  0.09102975  0.32943102  1
  Al  Al5  1  0.11171517  0.09345387  0.82834078  1
  Al  Al6  1  0.21786632  0.21004322  0.57834296  1
  Al  Al7  1  0.78576740  0.09088228  0.33333222  1
  Al  Al8  1  0.89292803  0.20436491  0.07669793  1
  Al  Al9  1  0.44034355  0.10195656  0.82943096  1
  Al  Al10  1  0.55439197  0.20927844  0.57552328  1
  Al  Al11  1  0.11171481  0.42816085  0.32834037  1
  Al  Al12  1  0.21945339  0.54286519  0.07644442  1
  Al  Al13  1  0.77798417  0.42820466  0.82906821  1
  Al  Al14  1  0.89292763  0.53604083  0.57669725  1
  Al  Al15  1  0.43949477  0.43606879  0.33280358  1
  Al  Al16  1  0.55514657  0.54113107  0.07863385  1
  Al  Al17  1  0.11001540  0.42776309  0.82870990  1
  Al  Al18  1  0.22029903  0.53975518  0.58128019  1
  Al  Al19  1  0.77798358  0.42713895  0.32906862  1
  Al  Al20  1  0.88978238  0.53709147  0.08090007  1
  Al  Al21  1  0.44498950  0.42780607  0.82527207  1
  Al  Al22  1  0.55514836  0.53705991  0.57863416  1
  Al  Al23  1  0.11112243  0.75975709  0.32821344  1
  Al  Al24  1  0.22029958  0.87328459  0.08127928  1
  Al  Al25  1  0.78576761  0.75667652  0.83333194  1
  Al  Al26  1  0.89375388  0.86910855  0.57856130  1
  Al  Al27  1  0.44499007  0.76053456  0.32527178  1
  Al  Al28  1  0.55439380  0.86966798  0.07552326  1
  Al  Al29  1  0.11112249  0.76245053  0.82821266  1
  Al  Al30  1  0.21945603  0.87101834  0.57644507  1
  Al  Al31  1  0.77809149  0.76101367  0.32556212  1
  Al  Al32  1  0.89375402  0.87047142  0.07856004  1
  Al  Al33  1  0.43949688  0.75776616  0.83280381  1
  Sc  Sc34  1  0.55663855  0.20659513  0.09595803  1
  Sc  Sc35  1  0.55663882  0.87011073  0.59595733  1
  N  N36  1  0.21976269  0.20690794  0.37957435  1
  N  N37  1  0.11006583  0.09547237  0.12982155  1
  N  N38  1  0.88904230  0.20541613  0.87631941  1
  N  N39  1  0.77781740  0.09356400  0.62470525  1
  N  N40  1  0.55544232  0.20576615  0.36889219  1
  N  N41  1  0.43306276  0.08416952  0.13049272  1
  N  N42  1  0.21976165  0.20667223  0.87957605  1
  N  N43  1  0.11262622  0.09292958  0.62884336  1
  N  N44  1  0.89008988  0.20703333  0.38285472  1
  N  N45  1  0.80122548  0.08359274  0.13573327  1
  N  N46  1  0.55701829  0.20674323  0.87260662  1
  N  N47  1  0.43305888  0.11609740  0.63049296  1
  N  N48  1  0.21947044  0.54012282  0.38269954  1
  N  N49  1  0.11262621  0.42776826  0.12884344  1
  N  N50  1  0.89009018  0.53621604  0.88285603  1
  N  N51  1  0.77758595  0.42949785  0.62935657  1
  N  N52  1  0.55679847  0.54025494  0.37995524  1
  N  N53  1  0.43195095  0.45116677  0.13537530  1
  N  N54  1  0.22225479  0.53901982  0.87617911  1
  N  N55  1  0.11006601  0.42778612  0.62982166  1
  N  N56  1  0.88904185  0.53888178  0.37631826  1
  N  N57  1  0.77758434  0.42623581  0.12935662  1
  N  N58  1  0.55679871  0.53628997  0.87995481  1
  N  N59  1  0.44435032  0.42812563  0.62518433  1
  N  N60  1  0.22225555  0.87206850  0.37617998  1
  N  N61  1  0.11132266  0.76009974  0.12952009  1
  N  N62  1  0.89009058  0.87379804  0.87991590  1
  N  N63  1  0.80122495  0.74850318  0.63573336  1
  N  N64  1  0.55701839  0.86958220  0.37260619  1
  N  N65  1  0.44435060  0.76085007  0.12518377  1
  N  N66  1  0.21947229  0.87374917  0.88269804  1
  N  N67  1  0.11132401  0.76190353  0.62952003  1
  N  N68  1  0.89009115  0.86945189  0.37991715  1
  N  N69  1  0.77781931  0.76193835  0.12470505  1
  N  N70  1  0.55544240  0.87213550  0.86889219  1
  N  N71  1  0.43195391  0.75020840  0.63537444  1
