# generated using pymatgen
data_ScAl17N18
_symmetry_space_group_name_H-M   'P 1'
_cell_length_a   9.49994625
_cell_length_b   9.49752679
_cell_length_c   9.99145667
_cell_angle_alpha   89.99999438
_cell_angle_beta   89.97716864
_cell_angle_gamma   60.00829635
_symmetry_Int_Tables_number   1
_chemical_formula_structural   ScAl17N18
_chemical_formula_sum   'Sc2 Al34 N36'
_cell_volume   780.77764637
_cell_formula_units_Z   2
loop_
 _symmetry_equiv_pos_site_id
 _symmetry_equiv_pos_as_xyz
  1  'x, y, z'
loop_
 _atom_site_type_symbol
 _atom_site_label
 _atom_site_symmetry_multiplicity
 _atom_site_fract_x
 _atom_site_fract_y
 _atom_site_fract_z
 _atom_site_occupancy
  Al  Al0  1  0.11068148  0.09487353  0.29902159  1
  Al  Al1  1  0.21813739  0.20547725  0.04871950  1
  Al  Al2  1  0.77881817  0.09401976  0.79552668  1
  Al  Al3  1  0.88964772  0.20613300  0.54964335  1
  Al  Al4  1  0.44087299  0.09233733  0.29827847  1
  Al  Al5  1  0.11119920  0.09406146  0.79907477  1
  Al  Al6  1  0.21813742  0.20971860  0.54871948  1
  Al  Al7  1  0.78401768  0.09143875  0.30257777  1
  Al  Al8  1  0.89290927  0.20441836  0.04870347  1
  Al  Al9  1  0.44087304  0.10012302  0.79827855  1
  Al  Al10  1  0.55440977  0.20912504  0.54675985  1
  Al  Al11  1  0.11119924  0.42807271  0.29907489  1
  Al  Al12  1  0.21941991  0.54291345  0.04850116  1
  Al  Al13  1  0.77789335  0.42772218  0.79956225  1
  Al  Al14  1  0.89290924  0.53600581  0.54870342  1
  Al  Al15  1  0.44075187  0.43429484  0.30235165  1
  Al  Al16  1  0.55490857  0.54161970  0.04908203  1
  Al  Al17  1  0.11068146  0.42777837  0.79902156  1
  Al  Al18  1  0.22069611  0.53956870  0.55017998  1
  Al  Al19  1  0.77789340  0.42771788  0.29956241  1
  Al  Al20  1  0.88964771  0.53755265  0.04964342  1
  Al  Al21  1  0.44428677  0.42854622  0.79512647  1
  Al  Al22  1  0.55490848  0.53680499  0.54908191  1
  Al  Al23  1  0.11115587  0.76047010  0.29881169  1
  Al  Al24  1  0.22069609  0.87306841  0.05018000  1
  Al  Al25  1  0.78401759  0.75787711  0.80257769  1
  Al  Al26  1  0.89364878  0.86951807  0.54899760  1
  Al  Al27  1  0.44428672  0.76050034  0.29512654  1
  Al  Al28  1  0.55440970  0.86979841  0.04675999  1
  Al  Al29  1  0.11115584  0.76170737  0.79881161  1
  Al  Al30  1  0.21941983  0.87099991  0.54850101  1
  Al  Al31  1  0.77881814  0.76049554  0.29552677  1
  Al  Al32  1  0.89364883  0.87016649  0.04899773  1
  Al  Al33  1  0.44075180  0.75828665  0.80235151  1
  Sc  Sc34  1  0.55652405  0.20675725  0.05851486  1
  Sc  Sc35  1  0.55652393  0.87005194  0.55851472  1
  N  N36  1  0.22035005  0.20653151  0.35710784  1
  N  N37  1  0.11079994  0.09481103  0.10724332  1
  N  N38  1  0.88891161  0.20537516  0.85558478  1
  N  N39  1  0.77841763  0.09351751  0.60260349  1
  N  N40  1  0.55539704  0.20567335  0.34912099  1
  N  N41  1  0.43340302  0.08523806  0.10838003  1
  N  N42  1  0.22035000  0.20645155  0.85710788  1
  N  N43  1  0.11193576  0.09355561  0.60651665  1
  N  N44  1  0.88988568  0.20674784  0.35873037  1
  N  N45  1  0.79986798  0.08382499  0.11324336  1
  N  N46  1  0.55682443  0.20650182  0.84597438  1
  N  N47  1  0.43340305  0.11469248  0.60838002  1
  N  N48  1  0.21994018  0.53991994  0.35878273  1
  N  N49  1  0.11193576  0.42784216  0.10651675  1
  N  N50  1  0.88988562  0.53669968  0.85873029  1
  N  N51  1  0.77750870  0.42874712  0.60682277  1
  N  N52  1  0.55646586  0.54024427  0.35755466  1
  N  N53  1  0.43292112  0.45001128  0.11316432  1
  N  N54  1  0.22242392  0.53887083  0.85538609  1
  N  N55  1  0.11079990  0.42772257  0.60724329  1
  N  N56  1  0.88891163  0.53904643  0.35558480  1
  N  N57  1  0.77750878  0.42707781  0.10682291  1
  N  N58  1  0.55646588  0.53662291  0.85755461  1
  N  N59  1  0.44372944  0.42850877  0.60308033  1
  N  N60  1  0.22242387  0.87203837  0.35538599  1
  N  N61  1  0.11137556  0.76080192  0.10718333  1
  N  N62  1  0.88984085  0.87362172  0.85748691  1
  N  N63  1  0.79986780  0.74964085  0.61324321  1
  N  N64  1  0.55682434  0.87000687  0.34597434  1
  N  N65  1  0.44372943  0.76109525  0.10308046  1
  N  N66  1  0.21994011  0.87347301  0.85878265  1
  N  N67  1  0.11137551  0.76115602  0.60718320  1
  N  N68  1  0.88984086  0.86987059  0.35748689  1
  N  N69  1  0.77841759  0.76139856  0.10260364  1
  N  N70  1  0.55539696  0.87226270  0.84912108  1
  N  N71  1  0.43292103  0.75040113  0.61316417  1
