# generated using pymatgen
data_ScAl17N18
_symmetry_space_group_name_H-M   'P 1'
_cell_length_a   9.49898817
_cell_length_b   9.49651359
_cell_length_c   9.99400078
_cell_angle_alpha   90.00000920
_cell_angle_beta   90.02308590
_cell_angle_gamma   60.00860601
_symmetry_Int_Tables_number   1
_chemical_formula_structural   ScAl17N18
_chemical_formula_sum   'Sc2 Al34 N36'
_cell_volume   780.81681962
_cell_formula_units_Z   2
loop_
 _symmetry_equiv_pos_site_id
 _symmetry_equiv_pos_as_xyz
  1  'x, y, z'
loop_
 _atom_site_type_symbol
 _atom_site_label
 _atom_site_symmetry_multiplicity
 _atom_site_fract_x
 _atom_site_fract_y
 _atom_site_fract_z
 _atom_site_occupancy
  Al  Al0  1  0.11118518  0.09407044  0.39834788  1
  Al  Al1  1  0.21813196  0.20548425  0.14870558  1
  Al  Al2  1  0.78398271  0.09145423  0.89483766  1
  Al  Al3  1  0.88963795  0.20613612  0.64778997  1
  Al  Al4  1  0.44086861  0.10009406  0.39915870  1
  Al  Al5  1  0.11067531  0.09487503  0.89840150  1
  Al  Al6  1  0.21813195  0.20971711  0.64870536  1
  Al  Al7  1  0.77882373  0.09401636  0.40190286  1
  Al  Al8  1  0.89289789  0.20442302  0.14870599  1
  Al  Al9  1  0.44086844  0.09237065  0.89915839  1
  Al  Al10  1  0.55440089  0.20912389  0.65062588  1
  Al  Al11  1  0.11067524  0.42778320  0.39840201  1
  Al  Al12  1  0.21941446  0.54291475  0.14890627  1
  Al  Al13  1  0.77788159  0.42772695  0.89785956  1
  Al  Al14  1  0.89289802  0.53601257  0.64870591  1
  Al  Al15  1  0.44426627  0.42856599  0.40230029  1
  Al  Al16  1  0.55489664  0.54162449  0.14833597  1
  Al  Al17  1  0.11118501  0.42807765  0.89834743  1
  Al  Al18  1  0.22068822  0.53957215  0.64725124  1
  Al  Al19  1  0.77788166  0.42772471  0.39785981  1
  Al  Al20  1  0.88963755  0.53755941  0.14778978  1
  Al  Al21  1  0.44075861  0.43427152  0.89506266  1
  Al  Al22  1  0.55489631  0.53681221  0.64833601  1
  Al  Al23  1  0.11114749  0.76170656  0.39860759  1
  Al  Al24  1  0.22068818  0.87307290  0.14725139  1
  Al  Al25  1  0.77882381  0.76049290  0.90190268  1
  Al  Al26  1  0.89363966  0.86952136  0.64842037  1
  Al  Al27  1  0.44075841  0.75830352  0.39506305  1
  Al  Al28  1  0.55440113  0.86980818  0.15062615  1
  Al  Al29  1  0.11114775  0.76047917  0.89860744  1
  Al  Al30  1  0.21941422  0.87100438  0.64890603  1
  Al  Al31  1  0.78398251  0.75789679  0.39483775  1
  Al  Al32  1  0.89363964  0.87017224  0.14842071  1
  Al  Al33  1  0.44426631  0.76050091  0.90230006  1
  Sc  Sc34  1  0.55652064  0.20676314  0.13900423  1
  Sc  Sc35  1  0.55652021  0.87004907  0.63900351  1
  N  N36  1  0.22034465  0.20645314  0.34027941  1
  N  N37  1  0.11079552  0.09481268  0.09014315  1
  N  N38  1  0.88987438  0.20675217  0.83866497  1
  N  N39  1  0.77842064  0.09351784  0.59477679  1
  N  N40  1  0.55681336  0.20650200  0.35147586  1
  N  N41  1  0.43339950  0.08527185  0.08900793  1
  N  N42  1  0.22034476  0.20653553  0.84028005  1
  N  N43  1  0.11191786  0.09356624  0.59086802  1
  N  N44  1  0.88890085  0.20537939  0.34178686  1
  N  N45  1  0.79983509  0.08383885  0.08413487  1
  N  N46  1  0.55538793  0.20567635  0.84820455  1
  N  N47  1  0.43339955  0.11466231  0.58900802  1
  N  N48  1  0.22241540  0.53887411  0.34198369  1
  N  N49  1  0.11191803  0.42784912  0.09086813  1
  N  N50  1  0.88890085  0.53905342  0.84178706  1
  N  N51  1  0.77749800  0.42874624  0.59056134  1
  N  N52  1  0.55645357  0.53663055  0.33982608  1
  N  N53  1  0.43292711  0.44998898  0.08421406  1
  N  N54  1  0.21993421  0.53992212  0.83861071  1
  N  N55  1  0.11079515  0.42772542  0.59014274  1
  N  N56  1  0.88987447  0.53670652  0.33866502  1
  N  N57  1  0.77749814  0.42708918  0.09056177  1
  N  N58  1  0.55645346  0.54024909  0.83982624  1
  N  N59  1  0.44371078  0.42852249  0.59429829  1
  N  N60  1  0.21993431  0.87347720  0.33861042  1
  N  N61  1  0.11136815  0.76081097  0.09019851  1
  N  N62  1  0.88983120  0.86987691  0.83989421  1
  N  N63  1  0.79983481  0.74965949  0.58413522  1
  N  N64  1  0.55538769  0.87226908  0.34820435  1
  N  N65  1  0.44371064  0.76110039  0.09429823  1
  N  N66  1  0.22241532  0.87204368  0.84198416  1
  N  N67  1  0.11136784  0.76115451  0.59019864  1
  N  N68  1  0.88983123  0.87362520  0.33989410  1
  N  N69  1  0.77842056  0.76139496  0.09477670  1
  N  N70  1  0.55681315  0.87001807  0.85147670  1
  N  N71  1  0.43292725  0.75041722  0.58421381  1
