# generated using pymatgen
data_ScAl17N18
_symmetry_space_group_name_H-M   'P 1'
_cell_length_a   10.01594084
_cell_length_b   10.00970740
_cell_length_c   8.45224671
_cell_angle_alpha   90.00003903
_cell_angle_beta   89.99382120
_cell_angle_gamma   60.01888917
_symmetry_Int_Tables_number   1
_chemical_formula_structural   ScAl17N18
_chemical_formula_sum   'Sc2 Al34 N36'
_cell_volume   734.00422300
_cell_formula_units_Z   2
loop_
 _symmetry_equiv_pos_site_id
 _symmetry_equiv_pos_as_xyz
  1  'x, y, z'
loop_
 _atom_site_type_symbol
 _atom_site_label
 _atom_site_symmetry_multiplicity
 _atom_site_fract_x
 _atom_site_fract_y
 _atom_site_fract_z
 _atom_site_occupancy
  Al  Al0  1  0.11040157  0.09490638  0.35144724  1
  Al  Al1  1  0.21768906  0.20598078  0.10131424  1
  Al  Al2  1  0.78184645  0.09251568  0.84772198  1
  Al  Al3  1  0.88976652  0.20641754  0.60194197  1
  Al  Al4  1  0.44000380  0.09647513  0.35280923  1
  Al  Al5  1  0.11119187  0.09400259  0.85057327  1
  Al  Al6  1  0.21768945  0.20966161  0.60131461  1
  Al  Al7  1  0.78256907  0.09248029  0.35574106  1
  Al  Al8  1  0.89247198  0.20514890  0.10009666  1
  Al  Al9  1  0.44000406  0.09685480  0.85280936  1
  Al  Al10  1  0.55482779  0.20893483  0.60299202  1
  Al  Al11  1  0.11119201  0.42814031  0.35057366  1
  Al  Al12  1  0.21917386  0.54230574  0.09996746  1
  Al  Al13  1  0.77798109  0.42800198  0.85115889  1
  Al  Al14  1  0.89247226  0.53571259  0.60009679  1
  Al  Al15  1  0.44158187  0.43241303  0.35521363  1
  Al  Al16  1  0.55567386  0.54083485  0.10126716  1
  Al  Al17  1  0.11040183  0.42802694  0.85144694  1
  Al  Al18  1  0.22042637  0.53972553  0.60199600  1
  Al  Al19  1  0.77798115  0.42735354  0.35115880  1
  Al  Al20  1  0.88976664  0.53714952  0.10194198  1
  Al  Al21  1  0.44245738  0.43161823  0.84828470  1
  Al  Al22  1  0.55567377  0.53682205  0.60126705  1
  Al  Al23  1  0.11136449  0.76046166  0.35084638  1
  Al  Al24  1  0.22042556  0.87317986  0.10199609  1
  Al  Al25  1  0.78256857  0.75828695  0.85574104  1
  Al  Al26  1  0.89341282  0.86989017  0.60112703  1
  Al  Al27  1  0.44245668  0.75925862  0.34828460  1
  Al  Al28  1  0.55482707  0.86956820  0.10299199  1
  Al  Al29  1  0.11136436  0.76150817  0.85084702  1
  Al  Al30  1  0.21917275  0.87185208  0.59996718  1
  Al  Al31  1  0.78184593  0.75897448  0.34772203  1
  Al  Al32  1  0.89341296  0.87002991  0.10112713  1
  Al  Al33  1  0.44158091  0.75933915  0.85521344  1
  Sc  Sc34  1  0.55686872  0.20619634  0.10420816  1
  Sc  Sc35  1  0.55686819  0.87026405  0.60420816  1
  N  N36  1  0.21912374  0.20720031  0.35688812  1
  N  N37  1  0.11010570  0.09511156  0.10732001  1
  N  N38  1  0.88958430  0.20617297  0.85390002  1
  N  N39  1  0.77955457  0.09298860  0.60571086  1
  N  N40  1  0.55630413  0.20619158  0.36292749  1
  N  N41  1  0.43435215  0.08777032  0.10613939  1
  N  N42  1  0.21912383  0.20700624  0.85688705  1
  N  N43  1  0.11216784  0.09322805  0.60688078  1
  N  N44  1  0.88972549  0.20656065  0.36048112  1
  N  N45  1  0.79662111  0.08585362  0.10819980  1
  N  N46  1  0.55659235  0.20628214  0.84720413  1
  N  N47  1  0.43435302  0.11121211  0.60613952  1
  N  N48  1  0.22047649  0.53965584  0.35991594  1
  N  N49  1  0.11216787  0.42794009  0.10688077  1
  N  N50  1  0.88972574  0.53704591  0.86048072  1
  N  N51  1  0.77772382  0.42920142  0.60713008  1
  N  N52  1  0.55694114  0.53853327  0.35709464  1
  N  N53  1  0.43448334  0.44610465  0.10789824  1
  N  N54  1  0.22096770  0.53953481  0.85439787  1
  N  N55  1  0.11010593  0.42811901  0.60731996  1
  N  N56  1  0.88958445  0.53757491  0.35390032  1
  N  N57  1  0.77772421  0.42641319  0.10712997  1
  N  N58  1  0.55694106  0.53785496  0.85709494  1
  N  N59  1  0.44327829  0.42971759  0.60586815  1
  N  N60  1  0.22096673  0.87282803  0.35439745  1
  N  N61  1  0.11158821  0.76023619  0.10720989  1
  N  N62  1  0.89047441  0.87186726  0.85717047  1
  N  N63  1  0.79662052  0.75086369  0.60819972  1
  N  N64  1  0.55659181  0.87045516  0.34720419  1
  N  N65  1  0.44327763  0.76033952  0.10586826  1
  N  N66  1  0.22047541  0.87319820  0.85991649  1
  N  N67  1  0.11158804  0.76151095  0.60720993  1
  N  N68  1  0.89047451  0.87098986  0.35716979  1
  N  N69  1  0.77955368  0.76079515  0.10571092  1
  N  N70  1  0.55630370  0.87083351  0.86292741  1
  N  N71  1  0.43448199  0.75274733  0.60789824  1
