# generated using pymatgen
data_ScAl17N18
_symmetry_space_group_name_H-M   'P 1'
_cell_length_a   9.49903856
_cell_length_b   9.49656256
_cell_length_c   9.99386882
_cell_angle_alpha   90.00000146
_cell_angle_beta   89.97689924
_cell_angle_gamma   60.00862503
_symmetry_Int_Tables_number   1
_chemical_formula_structural   ScAl17N18
_chemical_formula_sum   'Sc2 Al34 N36'
_cell_volume   780.81482801
_cell_formula_units_Z   2
loop_
 _symmetry_equiv_pos_site_id
 _symmetry_equiv_pos_as_xyz
  1  'x, y, z'
loop_
 _atom_site_type_symbol
 _atom_site_label
 _atom_site_symmetry_multiplicity
 _atom_site_fract_x
 _atom_site_fract_y
 _atom_site_fract_z
 _atom_site_occupancy
  Al  Al0  1  0.11068226  0.09487210  0.30624431  1
  Al  Al1  1  0.21813847  0.20548077  0.05593955  1
  Al  Al2  1  0.77882901  0.09401365  0.80273306  1
  Al  Al3  1  0.88964534  0.20613279  0.55685592  1
  Al  Al4  1  0.44087577  0.09236330  0.30548254  1
  Al  Al5  1  0.11119330  0.09406579  0.80629799  1
  Al  Al6  1  0.21813849  0.20971409  0.55593954  1
  Al  Al7  1  0.78399381  0.09144911  0.30979787  1
  Al  Al8  1  0.89290617  0.20441965  0.05593572  1
  Al  Al9  1  0.44087581  0.10009414  0.80548259  1
  Al  Al10  1  0.55440861  0.20912048  0.55400232  1
  Al  Al11  1  0.11119329  0.42807424  0.30629799  1
  Al  Al12  1  0.21942113  0.54291152  0.05573440  1
  Al  Al13  1  0.77788959  0.42772112  0.80678548  1
  Al  Al14  1  0.89290621  0.53600758  0.55593576  1
  Al  Al15  1  0.44076364  0.43427173  0.30957342  1
  Al  Al16  1  0.55490480  0.54162085  0.05630502  1
  Al  Al17  1  0.11068233  0.42777892  0.80624431  1
  Al  Al18  1  0.22069549  0.53956818  0.55739396  1
  Al  Al19  1  0.77788955  0.42772265  0.30678551  1
  Al  Al20  1  0.88964537  0.53755528  0.05685591  1
  Al  Al21  1  0.44427589  0.42855921  0.80233533  1
  Al  Al22  1  0.55490472  0.53680768  0.55630507  1
  Al  Al23  1  0.11115500  0.76047457  0.30603660  1
  Al  Al24  1  0.22069548  0.87306969  0.05739395  1
  Al  Al25  1  0.78399387  0.75789041  0.80979791  1
  Al  Al26  1  0.89364733  0.86951792  0.55622012  1
  Al  Al27  1  0.44427583  0.76049810  0.30233528  1
  Al  Al28  1  0.55440859  0.86980422  0.05400238  1
  Al  Al29  1  0.11115502  0.76170375  0.80603660  1
  Al  Al30  1  0.21942114  0.87100071  0.55573441  1
  Al  Al31  1  0.77882900  0.76049064  0.30273303  1
  Al  Al32  1  0.89364733  0.87016817  0.05622015  1
  Al  Al33  1  0.44076367  0.75829788  0.80957346  1
  Sc  Sc34  1  0.55652753  0.20675984  0.06564202  1
  Sc  Sc35  1  0.55652756  0.87004604  0.56564200  1
  N  N36  1  0.22035305  0.20653128  0.36436333  1
  N  N37  1  0.11080233  0.09480930  0.11450159  1
  N  N38  1  0.88890757  0.20537507  0.86285231  1
  N  N39  1  0.77842561  0.09351439  0.60985910  1
  N  N40  1  0.55539582  0.20567265  0.35642436  1
  N  N41  1  0.43340842  0.08526396  0.11563196  1
  N  N42  1  0.22035308  0.20644898  0.86436336  1
  N  N43  1  0.11192663  0.09356123  0.61377548  1
  N  N44  1  0.88988159  0.20674824  0.36597912  1
  N  N45  1  0.79984351  0.08383479  0.12050238  1
  N  N46  1  0.55682129  0.20649834  0.85316825  1
  N  N47  1  0.43340841  0.11466097  0.61563195  1
  N  N48  1  0.21994237  0.53991824  0.36603279  1
  N  N49  1  0.11192664  0.42784551  0.11377544  1
  N  N50  1  0.88988166  0.53670348  0.86597913  1
  N  N51  1  0.77750525  0.42874337  0.61408108  1
  N  N52  1  0.55646047  0.54024648  0.36481255  1
  N  N53  1  0.43293363  0.44998693  0.12042416  1
  N  N54  1  0.22242431  0.53886975  0.86265474  1
  N  N55  1  0.11080239  0.42772169  0.61450157  1
  N  N56  1  0.88890757  0.53905070  0.36285229  1
  N  N57  1  0.77750528  0.42708479  0.11408108  1
  N  N58  1  0.55646053  0.53662624  0.86481253  1
  N  N59  1  0.44372000  0.42851633  0.61033756  1
  N  N60  1  0.22242429  0.87203927  0.36265475  1
  N  N61  1  0.11137526  0.76080687  0.11444349  1
  N  N62  1  0.88983772  0.87362218  0.86474446  1
  N  N63  1  0.79984355  0.74965510  0.62050242  1
  N  N64  1  0.55682125  0.87001356  0.35316816  1
  N  N65  1  0.44371998  0.76109692  0.11033748  1
  N  N66  1  0.21994238  0.87347272  0.86603279  1
  N  N67  1  0.11137526  0.76115124  0.61444347  1
  N  N68  1  0.88983769  0.86987349  0.36474439  1
  N  N69  1  0.77842561  0.76139340  0.10985905  1
  N  N70  1  0.55539587  0.87226477  0.85642444  1
  N  N71  1  0.43293365  0.75041281  0.62042419  1
