# generated using pymatgen
data_ScAl17N18
_symmetry_space_group_name_H-M   'P 1'
_cell_length_a   9.50097071
_cell_length_b   9.49856941
_cell_length_c   9.98861464
_cell_angle_alpha   89.99999965
_cell_angle_beta   89.97763529
_cell_angle_gamma   60.00839169
_symmetry_Int_Tables_number   1
_chemical_formula_structural   ScAl17N18
_chemical_formula_sum   'Sc2 Al34 N36'
_cell_volume   780.72618099
_cell_formula_units_Z   2
loop_
 _symmetry_equiv_pos_site_id
 _symmetry_equiv_pos_as_xyz
  1  'x, y, z'
loop_
 _atom_site_type_symbol
 _atom_site_label
 _atom_site_symmetry_multiplicity
 _atom_site_fract_x
 _atom_site_fract_y
 _atom_site_fract_z
 _atom_site_occupancy
  Al  Al0  1  0.11067373  0.09487879  0.32205536  1
  Al  Al1  1  0.21813228  0.20547314  0.07175592  1
  Al  Al2  1  0.77879682  0.09402973  0.81858165  1
  Al  Al3  1  0.88964345  0.20613411  0.57269412  1
  Al  Al4  1  0.44086186  0.09231563  0.32132914  1
  Al  Al5  1  0.11120007  0.09405915  0.82210588  1
  Al  Al6  1  0.21813232  0.20972518  0.57175510  1
  Al  Al7  1  0.78403368  0.09143219  0.32561101  1
  Al  Al8  1  0.89290974  0.20441652  0.07172396  1
  Al  Al9  1  0.44086169  0.10015580  0.82132843  1
  Al  Al10  1  0.55440242  0.20913400  0.56976659  1
  Al  Al11  1  0.11120096  0.42807265  0.32210655  1
  Al  Al12  1  0.21940900  0.54291890  0.07152119  1
  Al  Al13  1  0.77789104  0.42772735  0.82259836  1
  Al  Al14  1  0.89290921  0.53600563  0.57172464  1
  Al  Al15  1  0.44073178  0.43431919  0.32538293  1
  Al  Al16  1  0.55490371  0.54162628  0.07212089  1
  Al  Al17  1  0.11067369  0.42777970  0.82205600  1
  Al  Al18  1  0.22069387  0.53957089  0.57323052  1
  Al  Al19  1  0.77789100  0.42771335  0.32259648  1
  Al  Al20  1  0.88964223  0.53755594  0.07269381  1
  Al  Al21  1  0.44429096  0.42853370  0.81818218  1
  Al  Al22  1  0.55490346  0.53680460  0.57212147  1
  Al  Al23  1  0.11115006  0.76046941  0.32184485  1
  Al  Al24  1  0.22069274  0.87307009  0.07323023  1
  Al  Al25  1  0.78403332  0.75786867  0.82561202  1
  Al  Al26  1  0.89364424  0.86952601  0.57203394  1
  Al  Al27  1  0.44428920  0.76051030  0.31818316  1
  Al  Al28  1  0.55440229  0.86979772  0.06976684  1
  Al  Al29  1  0.11115036  0.76171614  0.82184327  1
  Al  Al30  1  0.21941001  0.87100704  0.57151974  1
  Al  Al31  1  0.77879576  0.76050884  0.31858153  1
  Al  Al32  1  0.89364279  0.87016563  0.07203460  1
  Al  Al33  1  0.44073053  0.75828345  0.82538157  1
  Sc  Sc34  1  0.55651395  0.20674978  0.08164427  1
  Sc  Sc35  1  0.55651010  0.87007059  0.58164435  1
  N  N36  1  0.22033913  0.20653766  0.38012123  1
  N  N37  1  0.11078857  0.09481569  0.13025255  1
  N  N38  1  0.88890667  0.20538086  0.87858252  1
  N  N39  1  0.77839656  0.09352675  0.62562043  1
  N  N40  1  0.55539300  0.20567850  0.37208986  1
  N  N41  1  0.43339571  0.08521069  0.13139441  1
  N  N42  1  0.22033947  0.20645836  0.88012114  1
  N  N43  1  0.11193516  0.09355494  0.62952553  1
  N  N44  1  0.88987957  0.20675264  0.38175312  1
  N  N45  1  0.79988207  0.08382081  0.13625195  1
  N  N46  1  0.55682010  0.20650866  0.86905731  1
  N  N47  1  0.43339678  0.11472651  0.63139545  1
  N  N48  1  0.21993469  0.53992343  0.38180468  1
  N  N49  1  0.11193527  0.42784425  0.12952493  1
  N  N50  1  0.88988060  0.53670118  0.88175231  1
  N  N51  1  0.77750467  0.42875749  0.62983278  1
  N  N52  1  0.55646650  0.54024185  0.38056699  1
  N  N53  1  0.43290557  0.45003469  0.13616992  1
  N  N54  1  0.22241607  0.53887683  0.87838421  1
  N  N55  1  0.11078727  0.42773125  0.63025218  1
  N  N56  1  0.88890731  0.53904578  0.37858281  1
  N  N57  1  0.77750420  0.42707290  0.12983505  1
  N  N58  1  0.55646636  0.53662439  0.88056754  1
  N  N59  1  0.44373697  0.42850134  0.62609749  1
  N  N60  1  0.22241663  0.87203901  0.37838353  1
  N  N61  1  0.11137047  0.76079640  0.13019137  1
  N  N62  1  0.88983713  0.87362239  0.88049886  1
  N  N63  1  0.79988474  0.74962846  0.63625204  1
  N  N64  1  0.55682188  0.87000379  0.36905665  1
  N  N65  1  0.44373813  0.76109312  0.12609691  1
  N  N66  1  0.21993544  0.87347348  0.88180524  1
  N  N67  1  0.11136796  0.76116419  0.63019338  1
  N  N68  1  0.88983729  0.86987154  0.38049964  1
  N  N69  1  0.77839745  0.76140804  0.12562032  1
  N  N70  1  0.55539379  0.87226174  0.87208979  1
  N  N71  1  0.43290866  0.75039301  0.63617045  1
