# generated using pymatgen
data_ScAl17N18
_symmetry_space_group_name_H-M   'P 1'
_cell_length_a   9.53387706
_cell_length_b   9.53202584
_cell_length_c   9.89782412
_cell_angle_alpha   90.00001084
_cell_angle_beta   89.98058403
_cell_angle_gamma   60.01005792
_symmetry_Int_Tables_number   1
_chemical_formula_structural   ScAl17N18
_chemical_formula_sum   'Sc2 Al34 N36'
_cell_volume   779.05675198
_cell_formula_units_Z   2
loop_
 _symmetry_equiv_pos_site_id
 _symmetry_equiv_pos_as_xyz
  1  'x, y, z'
loop_
 _atom_site_type_symbol
 _atom_site_label
 _atom_site_symmetry_multiplicity
 _atom_site_fract_x
 _atom_site_fract_y
 _atom_site_fract_z
 _atom_site_occupancy
  Al  Al0  1  0.11050417  0.09504273  0.32591125  1
  Al  Al1  1  0.21805883  0.20538568  0.07565895  1
  Al  Al2  1  0.77835019  0.09422600  0.82287231  1
  Al  Al3  1  0.88964165  0.20620700  0.57702361  1
  Al  Al4  1  0.44068774  0.09153155  0.32574161  1
  Al  Al5  1  0.11135053  0.09389136  0.82588476  1
  Al  Al6  1  0.21805695  0.20989290  0.57565831  1
  Al  Al7  1  0.78480856  0.09112752  0.32959690  1
  Al  Al8  1  0.89297069  0.20438910  0.07512131  1
  Al  Al9  1  0.44068652  0.10111390  0.82574174  1
  Al  Al10  1  0.55438438  0.20928917  0.57283085  1
  Al  Al11  1  0.11135019  0.42808951  0.32588452  1
  Al  Al12  1  0.21935512  0.54297196  0.07489327  1
  Al  Al13  1  0.77793602  0.42784809  0.82642410  1
  Al  Al14  1  0.89296993  0.53597292  0.57512096  1
  Al  Al15  1  0.44023872  0.43512873  0.32927598  1
  Al  Al16  1  0.55497284  0.54158988  0.07597394  1
  Al  Al17  1  0.11050389  0.42778445  0.82591154  1
  Al  Al18  1  0.22066403  0.53959591  0.57751706  1
  Al  Al19  1  0.77793553  0.42754522  0.32642414  1
  Al  Al20  1  0.88964174  0.53748356  0.07702385  1
  Al  Al21  1  0.44461643  0.42809791  0.82246235  1
  Al  Al22  1  0.55497455  0.53677355  0.57597402  1
  Al  Al23  1  0.11113053  0.76028025  0.32561552  1
  Al  Al24  1  0.22066473  0.87307651  0.07751651  1
  Al  Al25  1  0.78480893  0.75739204  0.82959664  1
  Al  Al26  1  0.89367190  0.86949966  0.57589875  1
  Al  Al27  1  0.44461705  0.76061777  0.32246226  1
  Al  Al28  1  0.55438634  0.86966303  0.07283067  1
  Al  Al29  1  0.11113062  0.76192081  0.82561503  1
  Al  Al30  1  0.21935734  0.87100828  0.57489341  1
  Al  Al31  1  0.77835096  0.76075279  0.32287211  1
  Al  Al32  1  0.89367143  0.87016134  0.07589810  1
  Al  Al33  1  0.44024072  0.75796423  0.82927589  1
  Sc  Sc34  1  0.55646012  0.20663851  0.08865567  1
  Sc  Sc35  1  0.55646073  0.87024408  0.58865525  1
  N  N36  1  0.22016732  0.20662360  0.38262444  1
  N  N37  1  0.11059209  0.09496975  0.13273081  1
  N  N38  1  0.88896586  0.20540133  0.88060122  1
  N  N39  1  0.77801268  0.09365295  0.62813873  1
  N  N40  1  0.55539628  0.20572425  0.37308927  1
  N  N41  1  0.43319787  0.08441588  0.13395322  1
  N  N42  1  0.22016660  0.20655000  0.88262577  1
  N  N43  1  0.11216071  0.09337939  0.63195841  1
  N  N44  1  0.88995660  0.20680302  0.38465724  1
  N  N45  1  0.80063994  0.08355001  0.13869129  1
  N  N46  1  0.55686492  0.20661532  0.87371470  1
  N  N47  1  0.43319420  0.11571748  0.63395435  1
  N  N48  1  0.21980768  0.54000109  0.38465216  1
  N  N49  1  0.11216075  0.42778603  0.13195845  1
  N  N50  1  0.88995673  0.53657819  0.88465786  1
  N  N51  1  0.77754768  0.42895924  0.63231135  1
  N  N52  1  0.55658026  0.54022021  0.38302791  1
  N  N53  1  0.43243721  0.45076047  0.13852885  1
  N  N54  1  0.22234919  0.53893666  0.88039177  1
  N  N55  1  0.11059135  0.42776531  0.63273082  1
  N  N56  1  0.88896561  0.53897083  0.38060060  1
  N  N57  1  0.77754630  0.42681580  0.13231122  1
  N  N58  1  0.55658031  0.53654092  0.88302761  1
  N  N59  1  0.44403572  0.42821658  0.62860254  1
  N  N60  1  0.22235003  0.87205460  0.38039228  1
  N  N61  1  0.11133668  0.76059806  0.13259841  1
  N  N62  1  0.88991266  0.87365056  0.88296989  1
  N  N63  1  0.80064013  0.74913238  0.63869118  1
  N  N64  1  0.55686529  0.86986163  0.37371430  1
  N  N65  1  0.44403619  0.76107592  0.12860233  1
  N  N66  1  0.21980941  0.87353114  0.88465118  1
  N  N67  1  0.11133751  0.76139266  0.63259844  1
  N  N68  1  0.88991289  0.86977501  0.38297098  1
  N  N69  1  0.77801440  0.76165624  0.12813873  1
  N  N70  1  0.55539677  0.87222089  0.87308924  1
  N  N71  1  0.43244107  0.75012993  0.63852753  1
