# generated using pymatgen
data_ScAl17N18
_symmetry_space_group_name_H-M   'P 1'
_cell_length_a   9.93474938
_cell_length_b   9.92940086
_cell_length_c   8.69049722
_cell_angle_alpha   89.99999897
_cell_angle_beta   90.01302989
_cell_angle_gamma   60.01788873
_symmetry_Int_Tables_number   1
_chemical_formula_structural   ScAl17N18
_chemical_formula_sum   'Sc2 Al34 N36'
_cell_volume   742.56326197
_cell_formula_units_Z   2
loop_
 _symmetry_equiv_pos_site_id
 _symmetry_equiv_pos_as_xyz
  1  'x, y, z'
loop_
 _atom_site_type_symbol
 _atom_site_label
 _atom_site_symmetry_multiplicity
 _atom_site_fract_x
 _atom_site_fract_y
 _atom_site_fract_z
 _atom_site_occupancy
  Al  Al0  1  0.11198506  0.09314868  0.36607964  1
  Al  Al1  1  0.21756555  0.20599561  0.11523292  1
  Al  Al2  1  0.78341656  0.09236715  0.85831905  1
  Al  Al3  1  0.88997952  0.20661967  0.61242500  1
  Al  Al4  1  0.44014714  0.09773339  0.36167604  1
  Al  Al5  1  0.10959500  0.09582106  0.86494070  1
  Al  Al6  1  0.21756562  0.20977213  0.61523251  1
  Al  Al7  1  0.78082290  0.09268368  0.36924222  1
  Al  Al8  1  0.89250319  0.20490149  0.11827825  1
  Al  Al9  1  0.44014704  0.09545207  0.86167601  1
  Al  Al10  1  0.55474516  0.20883891  0.61062384  1
  Al  Al11  1  0.10959512  0.42791731  0.36494080  1
  Al  Al12  1  0.21940526  0.54233379  0.11845745  1
  Al  Al13  1  0.77799381  0.42667185  0.86511742  1
  Al  Al14  1  0.89250325  0.53592971  0.61827809  1
  Al  Al15  1  0.44350272  0.43056993  0.36883290  1
  Al  Al16  1  0.55565667  0.54038293  0.11522522  1
  Al  Al17  1  0.11198517  0.42819936  0.86607949  1
  Al  Al18  1  0.21995634  0.53995995  0.61233732  1
  Al  Al19  1  0.77799373  0.42866858  0.36511739  1
  Al  Al20  1  0.88997960  0.53673514  0.11242511  1
  Al  Al21  1  0.44063990  0.43338494  0.85900696  1
  Al  Al22  1  0.55565663  0.53729333  0.61522536  1
  Al  Al23  1  0.11126956  0.76256297  0.36579859  1
  Al  Al24  1  0.21995599  0.87341720  0.11233719  1
  Al  Al25  1  0.78082263  0.75982742  0.86924219  1
  Al  Al26  1  0.89356394  0.86923143  0.61539693  1
  Al  Al27  1  0.44063949  0.75930781  0.35900692  1
  Al  Al28  1  0.55474482  0.86974878  0.11062384  1
  Al  Al29  1  0.11126960  0.75950042  0.86579878  1
  Al  Al30  1  0.21940488  0.87159428  0.61845763  1
  Al  Al31  1  0.78341632  0.75755044  0.35831902  1
  Al  Al32  1  0.89356394  0.87053872  0.11539663  1
  Al  Al33  1  0.44350235  0.75926007  0.86883292  1
  Sc  Sc34  1  0.55703302  0.20651572  0.10504691  1
  Sc  Sc35  1  0.55703276  0.86978398  0.60504690  1
  N  N36  1  0.21911110  0.20687161  0.34397346  1
  N  N37  1  0.10959251  0.09572330  0.09309930  1
  N  N38  1  0.88990237  0.20697371  0.83870397  1
  N  N39  1  0.77927306  0.09281112  0.59807648  1
  N  N40  1  0.55688414  0.20647722  0.35634536  1
  N  N41  1  0.43401704  0.08736948  0.09570075  1
  N  N42  1  0.21911117  0.20735062  0.84397304  1
  N  N43  1  0.11277284  0.09262159  0.59429809  1
  N  N44  1  0.88939290  0.20579438  0.34847000  1
  N  N45  1  0.79789818  0.08553988  0.08992674  1
  N  N46  1  0.55595116  0.20601338  0.84428975  1
  N  N47  1  0.43401728  0.11194588  0.59570059  1
  N  N48  1  0.22152019  0.53937523  0.34806441  1
  N  N49  1  0.11277291  0.42793866  0.09429807  1
  N  N50  1  0.88939301  0.53814695  0.84846986  1
  N  N51  1  0.77771507  0.42982242  0.59366089  1
  N  N52  1  0.55700650  0.53701772  0.34355297  1
  N  N53  1  0.43355044  0.44741718  0.09050761  1
  N  N54  1  0.21983018  0.53987787  0.83928008  1
  N  N55  1  0.10959264  0.42801751  0.59309934  1
  N  N56  1  0.88990248  0.53645825  0.33870413  1
  N  N57  1  0.77771521  0.42579676  0.09366099  1
  N  N58  1  0.55700653  0.53930861  0.84355313  1
  N  N59  1  0.44368630  0.42948488  0.59763199  1
  N  N60  1  0.21982982  0.87362539  0.33927991  1
  N  N61  1  0.11149582  0.75972623  0.09351304  1
  N  N62  1  0.89038912  0.87007924  0.84347787  1
  N  N63  1  0.79789789  0.74989625  0.58992683  1
  N  N64  1  0.55595092  0.87136811  0.34428976  1
  N  N65  1  0.44368593  0.76016153  0.09763191  1
  N  N66  1  0.22151978  0.87243807  0.84806455  1
  N  N67  1  0.11149573  0.76211091  0.59351299  1
  N  N68  1  0.89038908  0.87286566  0.34347758  1
  N  N69  1  0.77927272  0.76124999  0.09807642  1
  N  N70  1  0.55688385  0.86997142  0.85634534  1
  N  N71  1  0.43354994  0.75236500  0.59050764  1
