# generated using pymatgen
data_ScAl17N18
_symmetry_space_group_name_H-M   'P 1'
_cell_length_a   9.53428688
_cell_length_b   9.53220680
_cell_length_c   9.89727395
_cell_angle_alpha   90.00000431
_cell_angle_beta   90.01954773
_cell_angle_gamma   60.00953851
_symmetry_Int_Tables_number   1
_chemical_formula_structural   ScAl17N18
_chemical_formula_sum   'Sc2 Al34 N36'
_cell_volume   779.05764835
_cell_formula_units_Z   2
loop_
 _symmetry_equiv_pos_site_id
 _symmetry_equiv_pos_as_xyz
  1  'x, y, z'
loop_
 _atom_site_type_symbol
 _atom_site_label
 _atom_site_symmetry_multiplicity
 _atom_site_fract_x
 _atom_site_fract_y
 _atom_site_fract_z
 _atom_site_occupancy
  Al  Al0  1  0.11135413  0.09388823  0.38260882  1
  Al  Al1  1  0.21805937  0.20538259  0.13283168  1
  Al  Al2  1  0.78482219  0.09112323  0.87889497  1
  Al  Al3  1  0.88964180  0.20620725  0.63145960  1
  Al  Al4  1  0.44068394  0.10113298  0.38274045  1
  Al  Al5  1  0.11050083  0.09504658  0.88258164  1
  Al  Al6  1  0.21805813  0.20989381  0.63283213  1
  Al  Al7  1  0.77833912  0.09423126  0.38561159  1
  Al  Al8  1  0.89297267  0.20438793  0.13338011  1
  Al  Al9  1  0.44068485  0.09151600  0.88274075  1
  Al  Al10  1  0.55438399  0.20929115  0.63568137  1
  Al  Al11  1  0.11050051  0.42778482  0.38258142  1
  Al  Al12  1  0.21935523  0.54297141  0.13360898  1
  Al  Al13  1  0.77793560  0.42754248  0.88206875  1
  Al  Al14  1  0.89297201  0.53597190  0.63338032  1
  Al  Al15  1  0.44462322  0.42808831  0.38602229  1
  Al  Al16  1  0.55497370  0.54158924  0.13251780  1
  Al  Al17  1  0.11135388  0.42808995  0.88260895  1
  Al  Al18  1  0.22066545  0.53959477  0.63096690  1
  Al  Al19  1  0.77793594  0.42785213  0.38206869  1
  Al  Al20  1  0.88964178  0.53748290  0.13145939  1
  Al  Al21  1  0.44022905  0.43514427  0.87921773  1
  Al  Al22  1  0.55497486  0.53677222  0.63251778  1
  Al  Al23  1  0.11112985  0.76192571  0.38287931  1
  Al  Al24  1  0.22066601  0.87307484  0.13096729  1
  Al  Al25  1  0.77833960  0.76076013  0.88561166  1
  Al  Al26  1  0.89367241  0.86950008  0.63259272  1
  Al  Al27  1  0.44023047  0.75795934  0.37921785  1
  Al  Al28  1  0.55438541  0.86966018  0.13568157  1
  Al  Al29  1  0.11112970  0.76027703  0.88287897  1
  Al  Al30  1  0.21935680  0.87100775  0.63360890  1
  Al  Al31  1  0.78482245  0.75738452  0.37889514  1
  Al  Al32  1  0.89367208  0.87016015  0.13259320  1
  Al  Al33  1  0.44462370  0.76062144  0.88602230  1
  Sc  Sc34  1  0.55646008  0.20663322  0.11978445  1
  Sc  Sc35  1  0.55646038  0.87024648  0.61978484  1
  N  N36  1  0.22016609  0.20654927  0.32587267  1
  N  N37  1  0.11058695  0.09497491  0.07576939  1
  N  N38  1  0.88995890  0.20680187  0.82383420  1
  N  N39  1  0.77800230  0.09365854  0.58035860  1
  N  N40  1  0.55686678  0.20661488  0.33474312  1
  N  N41  1  0.43319367  0.08440160  0.07454009  1
  N  N42  1  0.22016664  0.20662227  0.82587361  1
  N  N43  1  0.11216351  0.09337825  0.57654215  1
  N  N44  1  0.88896740  0.20539993  0.32790747  1
  N  N45  1  0.80065293  0.08354723  0.06980689  1
  N  N46  1  0.55539729  0.20572268  0.83543575  1
  N  N47  1  0.43319103  0.11573738  0.57453916  1
  N  N48  1  0.22234965  0.53893543  0.32811744  1
  N  N49  1  0.11216348  0.42778711  0.07654208  1
  N  N50  1  0.88896716  0.53896858  0.82790788  1
  N  N51  1  0.77754649  0.42896640  0.57618879  1
  N  N52  1  0.55658280  0.53653771  0.32547188  1
  N  N53  1  0.43242838  0.45077392  0.06997166  1
  N  N54  1  0.21980733  0.54000040  0.82384048  1
  N  N55  1  0.11058627  0.42776774  0.57576942  1
  N  N56  1  0.88995890  0.53657504  0.32383379  1
  N  N57  1  0.77754554  0.42681343  0.07618889  1
  N  N58  1  0.55658278  0.54021808  0.82547170  1
  N  N59  1  0.44404132  0.42821135  0.57989511  1
  N  N60  1  0.21980859  0.87352969  0.32384118  1
  N  N61  1  0.11133446  0.76059586  0.07590308  1
  N  N62  1  0.88991430  0.86977208  0.82552833  1
  N  N63  1  0.80065300  0.74912586  0.56980698  1
  N  N64  1  0.55539766  0.87221866  0.33543581  1
  N  N65  1  0.44404175  0.76107780  0.07989522  1
  N  N66  1  0.22235031  0.87205262  0.82811710  1
  N  N67  1  0.11133502  0.76139939  0.57590302  1
  N  N68  1  0.88991417  0.87364984  0.32552909  1
  N  N69  1  0.77800348  0.76166496  0.08035859  1
  N  N70  1  0.55686705  0.86985734  0.83474330  1
  N  N71  1  0.43243111  0.75012769  0.56997254  1
