# generated using pymatgen
data_ScAl17N18
_symmetry_space_group_name_H-M   'P 1'
_cell_length_a   9.97517542
_cell_length_b   9.96959636
_cell_length_c   8.56674313
_cell_angle_alpha   89.99999939
_cell_angle_beta   89.98925663
_cell_angle_gamma   60.01834980
_symmetry_Int_Tables_number   1
_chemical_formula_structural   ScAl17N18
_chemical_formula_sum   'Sc2 Al34 N36'
_cell_volume   737.94629583
_cell_formula_units_Z   2
loop_
 _symmetry_equiv_pos_site_id
 _symmetry_equiv_pos_as_xyz
  1  'x, y, z'
loop_
 _atom_site_type_symbol
 _atom_site_label
 _atom_site_symmetry_multiplicity
 _atom_site_fract_x
 _atom_site_fract_y
 _atom_site_fract_z
 _atom_site_occupancy
  Al  Al0  1  0.10991242  0.09545250  0.34721227  1
  Al  Al1  1  0.21763094  0.20600595  0.09713283  1
  Al  Al2  1  0.78129222  0.09258048  0.84326870  1
  Al  Al3  1  0.88988252  0.20652210  0.59889614  1
  Al  Al4  1  0.44011609  0.09604044  0.35017588  1
  Al  Al5  1  0.11167932  0.09347729  0.84617634  1
  Al  Al6  1  0.21763101  0.20969625  0.59713301  1
  Al  Al7  1  0.78296178  0.09248278  0.35298492  1
  Al  Al8  1  0.89248058  0.20504409  0.09460274  1
  Al  Al9  1  0.44011613  0.09717636  0.85017585  1
  Al  Al10  1  0.55479353  0.20886479  0.60079739  1
  Al  Al11  1  0.11167940  0.42817685  0.34617641  1
  Al  Al12  1  0.21927721  0.54231493  0.09443259  1
  Al  Al13  1  0.77799027  0.42841544  0.84699021  1
  Al  Al14  1  0.89248065  0.53580914  0.59460283  1
  Al  Al15  1  0.44107699  0.43287179  0.35238719  1
  Al  Al16  1  0.55568118  0.54058659  0.09705404  1
  Al  Al17  1  0.10991250  0.42796864  0.84721223  1
  Al  Al18  1  0.22017297  0.53985699  0.59896614  1
  Al  Al19  1  0.77799030  0.42692835  0.34699018  1
  Al  Al20  1  0.88988256  0.53692920  0.09889608  1
  Al  Al21  1  0.44303628  0.43105694  0.84379162  1
  Al  Al22  1  0.55568116  0.53706503  0.59705400  1
  Al  Al23  1  0.11131322  0.75988164  0.34641846  1
  Al  Al24  1  0.22017275  0.87330332  0.09896616  1
  Al  Al25  1  0.78296166  0.75788948  0.85298492  1
  Al  Al26  1  0.89347402  0.86956502  0.59685316  1
  Al  Al27  1  0.44303604  0.75923984  0.34379159  1
  Al  Al28  1  0.55479334  0.86967442  0.10079736  1
  Al  Al29  1  0.11131320  0.76213853  0.84641856  1
  Al  Al30  1  0.21927696  0.87174108  0.59443251  1
  Al  Al31  1  0.78129209  0.75946126  0.34326871  1
  Al  Al32  1  0.89347404  0.87029464  0.09685331  1
  Al  Al33  1  0.44107674  0.75938424  0.85238718  1
  Sc  Sc34  1  0.55696473  0.20637481  0.10394897  1
  Sc  Sc35  1  0.55696460  0.86999292  0.60394895  1
  N  N36  1  0.21912682  0.20728858  0.36083166  1
  N  N37  1  0.10980787  0.09545959  0.11164327  1
  N  N38  1  0.88948121  0.20595932  0.85704576  1
  N  N39  1  0.77939564  0.09288376  0.60804735  1
  N  N40  1  0.55611711  0.20610845  0.36354037  1
  N  N41  1  0.43423011  0.08759589  0.10924906  1
  N  N42  1  0.21912681  0.20691773  0.86083143  1
  N  N43  1  0.11251882  0.09287064  0.61073336  1
  N  N44  1  0.88980919  0.20678747  0.36559348  1
  N  N45  1  0.79722506  0.08574450  0.11368472  1
  N  N46  1  0.55673997  0.20636867  0.84940058  1
  N  N47  1  0.43423032  0.11150686  0.60924909  1
  N  N48  1  0.22013865  0.53976655  0.36499522  1
  N  N49  1  0.11251886  0.42794408  0.11073333  1
  N  N50  1  0.88980926  0.53673704  0.86559337  1
  N  N51  1  0.77772945  0.42955999  0.61122856  1
  N  N52  1  0.55697430  0.53894591  0.36122175  1
  N  N53  1  0.43401237  0.44672052  0.11317134  1
  N  N54  1  0.22126302  0.53945918  0.85751634  1
  N  N55  1  0.10980798  0.42806616  0.61164327  1
  N  N56  1  0.88948131  0.53789308  0.35704582  1
  N  N57  1  0.77772953  0.42604481  0.11122848  1
  N  N58  1  0.55697429  0.53741246  0.86122181  1
  N  N59  1  0.44351279  0.42958253  0.60837237  1
  N  N60  1  0.22126276  0.87261102  0.35751628  1
  N  N61  1  0.11153643  0.75994263  0.11137429  1
  N  N62  1  0.89041486  0.87241488  0.86132591  1
  N  N63  1  0.79722493  0.75036473  0.61368466  1
  N  N64  1  0.55673985  0.87022394  0.34940058  1
  N  N65  1  0.44351257  0.76023783  0.10837240  1
  N  N66  1  0.22013842  0.87342798  0.86499532  1
  N  N67  1  0.11153638  0.76185440  0.61137430  1
  N  N68  1  0.89041486  0.87050379  0.36132571  1
  N  N69  1  0.77939543  0.76105480  0.10804738  1
  N  N70  1  0.55611701  0.87110701  0.86354035  1
  N  N71  1  0.43401200  0.75260022  0.61317134  1
