# generated using pymatgen
data_Sc2Al7N9
_symmetry_space_group_name_H-M   'P 1'
_cell_length_a   9.76870805
_cell_length_b   9.74509525
_cell_length_c   10.10396817
_cell_angle_alpha   90.05055333
_cell_angle_beta   89.96433591
_cell_angle_gamma   59.76500216
_symmetry_Int_Tables_number   1
_chemical_formula_structural   Sc2Al7N9
_chemical_formula_sum   'Sc8 Al28 N36'
_cell_volume   831.02106867
_cell_formula_units_Z   4
loop_
 _symmetry_equiv_pos_site_id
 _symmetry_equiv_pos_as_xyz
  1  'x, y, z'
loop_
 _atom_site_type_symbol
 _atom_site_label
 _atom_site_symmetry_multiplicity
 _atom_site_fract_x
 _atom_site_fract_y
 _atom_site_fract_z
 _atom_site_occupancy
  Al  Al0  1  0.10353941  0.09767416  0.29675241  1
  Al  Al1  1  0.21064190  0.20744375  0.04534257  1
  Al  Al2  1  0.78628211  0.09861366  0.79520271  1
  Al  Al3  1  0.89370585  0.20556538  0.54759400  1
  Al  Al4  1  0.10664463  0.09720166  0.79630283  1
  Al  Al5  1  0.20665448  0.20793817  0.54538080  1
  Al  Al6  1  0.78837070  0.09431770  0.29545728  1
  Al  Al7  1  0.89455817  0.20554100  0.04564187  1
  Al  Al8  1  0.10418531  0.43023616  0.29304736  1
  Al  Al9  1  0.22139635  0.53635814  0.04802796  1
  Al  Al10  1  0.77713770  0.42520291  0.79744969  1
  Al  Al11  1  0.88942682  0.53363985  0.54308957  1
  Al  Al12  1  0.44271409  0.43811217  0.29093973  1
  Al  Al13  1  0.55517238  0.54391249  0.04598272  1
  Al  Al14  1  0.10452551  0.41981298  0.79959395  1
  Al  Al15  1  0.77606734  0.42754692  0.29768593  1
  Al  Al16  1  0.88984037  0.53223254  0.05014150  1
  Al  Al17  1  0.44981617  0.43010696  0.79888633  1
  Al  Al18  1  0.55542641  0.54087974  0.54683671  1
  Al  Al19  1  0.11283808  0.76090834  0.29063356  1
  Al  Al20  1  0.22473324  0.87667614  0.05034999  1
  Al  Al21  1  0.89681163  0.87159145  0.53976020  1
  Al  Al22  1  0.44526815  0.75580614  0.29317166  1
  Al  Al23  1  0.55381467  0.86477940  0.04501328  1
  Al  Al24  1  0.21888513  0.87513146  0.54306630  1
  Al  Al25  1  0.78205409  0.75621123  0.29162609  1
  Al  Al26  1  0.89336963  0.87489865  0.05258716  1
  Al  Al27  1  0.44101116  0.75719032  0.79822809  1
  Sc  Sc28  1  0.43624801  0.09540764  0.29722684  1
  Sc  Sc29  1  0.56402146  0.20815548  0.05462956  1
  Sc  Sc30  1  0.43519699  0.10080217  0.80794953  1
  Sc  Sc31  1  0.56393228  0.20783971  0.54881640  1
  Sc  Sc32  1  0.21704216  0.53731913  0.55094542  1
  Sc  Sc33  1  0.78699458  0.75496934  0.80763470  1
  Sc  Sc34  1  0.11543145  0.76410962  0.80732467  1
  Sc  Sc35  1  0.55899062  0.86251011  0.55076840  1
  N  N36  1  0.19620034  0.21780142  0.35641349  1
  N  N37  1  0.10933501  0.09599701  0.10787566  1
  N  N38  1  0.88954002  0.20770612  0.85454202  1
  N  N39  1  0.80203825  0.08370222  0.60568976  1
  N  N40  1  0.56458034  0.21520014  0.33185500  1
  N  N41  1  0.43400756  0.08801906  0.08276257  1
  N  N42  1  0.19787585  0.21255905  0.85981639  1
  N  N43  1  0.11017360  0.09214714  0.60477190  1
  N  N44  1  0.88807097  0.20803602  0.35767918  1
  N  N45  1  0.80398574  0.08662963  0.11039402  1
  N  N46  1  0.56990601  0.21357992  0.84154131  1
  N  N47  1  0.42391952  0.10592770  0.59093762  1
  N  N48  1  0.22036765  0.53809357  0.33962213  1
  N  N49  1  0.11006640  0.42682336  0.10448637  1
  N  N50  1  0.89450722  0.51780443  0.86351271  1
  N  N51  1  0.77511785  0.43015809  0.60383057  1
  N  N52  1  0.55507739  0.53990335  0.35534847  1
  N  N53  1  0.43501544  0.45123918  0.10380323  1
  N  N54  1  0.23035500  0.51468265  0.85454580  1
  N  N55  1  0.09653134  0.41701784  0.61070990  1
  N  N56  1  0.88720213  0.53844000  0.35064712  1
  N  N57  1  0.77578261  0.42680840  0.10677153  1
  N  N58  1  0.55623366  0.53978919  0.85668513  1
  N  N59  1  0.45108770  0.43993096  0.61195258  1
  N  N60  1  0.22245374  0.87318387  0.34968992  1
  N  N61  1  0.11481173  0.75992540  0.09682940  1
  N  N62  1  0.88127604  0.89446144  0.86748378  1
  N  N63  1  0.80322914  0.75026259  0.59676872  1
  N  N64  1  0.56547889  0.85222644  0.34211352  1
  N  N65  1  0.44435904  0.76007171  0.10458454  1
  N  N66  1  0.23081570  0.88539419  0.86253068  1
  N  N67  1  0.10600271  0.77688577  0.59741014  1
  N  N68  1  0.89045282  0.87130200  0.34723567  1
  N  N69  1  0.78025025  0.75976690  0.09730827  1
  N  N70  1  0.55009977  0.85835617  0.85387632  1
  N  N71  1  0.43104356  0.75352439  0.60888680  1
