# generated using pymatgen
data_Sc2Al7N9
_symmetry_space_group_name_H-M   'P 1'
_cell_length_a   9.77147199
_cell_length_b   9.74985841
_cell_length_c   10.09333106
_cell_angle_alpha   90.04483803
_cell_angle_beta   89.96009852
_cell_angle_gamma   59.77032905
_symmetry_Int_Tables_number   1
_chemical_formula_structural   Sc2Al7N9
_chemical_formula_sum   'Sc8 Al28 N36'
_cell_volume   830.83200278
_cell_formula_units_Z   4
loop_
 _symmetry_equiv_pos_site_id
 _symmetry_equiv_pos_as_xyz
  1  'x, y, z'
loop_
 _atom_site_type_symbol
 _atom_site_label
 _atom_site_symmetry_multiplicity
 _atom_site_fract_x
 _atom_site_fract_y
 _atom_site_fract_z
 _atom_site_occupancy
  Al  Al0  1  0.10343024  0.09770637  0.31239622  1
  Al  Al1  1  0.21063886  0.20744371  0.06111932  1
  Al  Al2  1  0.78612833  0.09880363  0.81092492  1
  Al  Al3  1  0.89367456  0.20560741  0.56330569  1
  Al  Al4  1  0.10668842  0.09726172  0.81193679  1
  Al  Al5  1  0.20664078  0.20793558  0.56096838  1
  Al  Al6  1  0.78844987  0.09426249  0.31117067  1
  Al  Al7  1  0.89448887  0.20558618  0.06121166  1
  Al  Al8  1  0.10417540  0.43024868  0.30881738  1
  Al  Al9  1  0.22124532  0.53637338  0.06352591  1
  Al  Al10  1  0.77703809  0.42527375  0.81305805  1
  Al  Al11  1  0.88938611  0.53363987  0.55874627  1
  Al  Al12  1  0.44241286  0.43835748  0.30664987  1
  Al  Al13  1  0.55503442  0.54405061  0.06166900  1
  Al  Al14  1  0.10441063  0.41974275  0.81519496  1
  Al  Al15  1  0.77596331  0.42752472  0.31336281  1
  Al  Al16  1  0.88980007  0.53210428  0.06589380  1
  Al  Al17  1  0.44982214  0.43019708  0.81464506  1
  Al  Al18  1  0.55535283  0.54098792  0.56245196  1
  Al  Al19  1  0.11280380  0.76084946  0.30630967  1
  Al  Al20  1  0.22474202  0.87678678  0.06611498  1
  Al  Al21  1  0.89683537  0.87159403  0.55559373  1
  Al  Al22  1  0.44531136  0.75583862  0.30898849  1
  Al  Al23  1  0.55369718  0.86489601  0.06051216  1
  Al  Al24  1  0.21883946  0.87518980  0.55870149  1
  Al  Al25  1  0.78199922  0.75616358  0.30732122  1
  Al  Al26  1  0.89327098  0.87503291  0.06829800  1
  Al  Al27  1  0.44091681  0.75732351  0.81380828  1
  Sc  Sc28  1  0.43628645  0.09515540  0.31329365  1
  Sc  Sc29  1  0.56389892  0.20830683  0.07093141  1
  Sc  Sc30  1  0.43524414  0.10112409  0.82372771  1
  Sc  Sc31  1  0.56388908  0.20807787  0.56427330  1
  Sc  Sc32  1  0.21687264  0.53749106  0.56713263  1
  Sc  Sc33  1  0.78720022  0.75487428  0.82370566  1
  Sc  Sc34  1  0.11537835  0.76434482  0.82335545  1
  Sc  Sc35  1  0.55920366  0.86251099  0.56704061  1
  N  N36  1  0.19612724  0.21778054  0.37185220  1
  N  N37  1  0.10922104  0.09606590  0.12339882  1
  N  N38  1  0.88953414  0.20779554  0.86998540  1
  N  N39  1  0.80189596  0.08379281  0.62120011  1
  N  N40  1  0.56448486  0.21528993  0.34701687  1
  N  N41  1  0.43398488  0.08794384  0.09848021  1
  N  N42  1  0.19794391  0.21256870  0.87538831  1
  N  N43  1  0.11018433  0.09215549  0.62027584  1
  N  N44  1  0.88800256  0.20807106  0.37326310  1
  N  N45  1  0.80405095  0.08663027  0.12596288  1
  N  N46  1  0.56988072  0.21384979  0.85751082  1
  N  N47  1  0.42395655  0.10611737  0.60628694  1
  N  N48  1  0.22020409  0.53818858  0.35550276  1
  N  N49  1  0.11003843  0.42684001  0.12006740  1
  N  N50  1  0.89449283  0.51766544  0.87911781  1
  N  N51  1  0.77502943  0.43020850  0.61932971  1
  N  N52  1  0.55497777  0.53991977  0.37085665  1
  N  N53  1  0.43471505  0.45153583  0.11932514  1
  N  N54  1  0.23017842  0.51476448  0.86981957  1
  N  N55  1  0.09646783  0.41688175  0.62617996  1
  N  N56  1  0.88712828  0.53841962  0.36613403  1
  N  N57  1  0.77565236  0.42676893  0.12232214  1
  N  N58  1  0.55612915  0.54001007  0.87222900  1
  N  N59  1  0.45111348  0.43997176  0.62751007  1
  N  N60  1  0.22236691  0.87320356  0.36516161  1
  N  N61  1  0.11476861  0.75991215  0.11223692  1
  N  N62  1  0.88116666  0.89470543  0.88304787  1
  N  N63  1  0.80356565  0.75004028  0.61262642  1
  N  N64  1  0.56560708  0.85203931  0.35811311  1
  N  N65  1  0.44438186  0.76017369  0.12018321  1
  N  N66  1  0.23086311  0.88557379  0.87815002  1
  N  N67  1  0.10596298  0.77708851  0.61323625  1
  N  N68  1  0.89041865  0.87126622  0.36281947  1
  N  N69  1  0.78016090  0.75976712  0.11270844  1
  N  N70  1  0.55004565  0.85858902  0.86902683  1
  N  N71  1  0.43098773  0.75357798  0.62432754  1
