# generated using pymatgen
data_Sc2Al7N9
_symmetry_space_group_name_H-M   'P 1'
_cell_length_a   9.76847712
_cell_length_b   9.74349608
_cell_length_c   10.09147638
_cell_angle_alpha   90.01113607
_cell_angle_beta   90.05764740
_cell_angle_gamma   59.80994762
_symmetry_Int_Tables_number   1
_chemical_formula_structural   Sc2Al7N9
_chemical_formula_sum   'Sc8 Al28 N36'
_cell_volume   830.21746630
_cell_formula_units_Z   4
loop_
 _symmetry_equiv_pos_site_id
 _symmetry_equiv_pos_as_xyz
  1  'x, y, z'
loop_
 _atom_site_type_symbol
 _atom_site_label
 _atom_site_symmetry_multiplicity
 _atom_site_fract_x
 _atom_site_fract_y
 _atom_site_fract_z
 _atom_site_occupancy
  Al  Al0  1  0.10463787  0.09686325  0.39784947  1
  Al  Al1  1  0.20938900  0.20806406  0.14855381  1
  Al  Al2  1  0.78886603  0.09661631  0.90055506  1
  Al  Al3  1  0.89270563  0.20641264  0.64516531  1
  Al  Al4  1  0.10499113  0.09798886  0.89587220  1
  Al  Al5  1  0.20772146  0.20782640  0.64741804  1
  Al  Al6  1  0.78557444  0.09631670  0.39572728  1
  Al  Al7  1  0.89534697  0.20475552  0.14806947  1
  Al  Al8  1  0.09987056  0.42662216  0.39466156  1
  Al  Al9  1  0.21848527  0.54194004  0.15468033  1
  Al  Al10  1  0.77756391  0.42438064  0.89592771  1
  Al  Al11  1  0.89087265  0.52993055  0.64505738  1
  Al  Al12  1  0.45178369  0.43154107  0.39406691  1
  Al  Al13  1  0.55449335  0.54474857  0.14660283  1
  Al  Al14  1  0.10813719  0.42313592  0.89852383  1
  Al  Al15  1  0.77598976  0.42863181  0.39612671  1
  Al  Al16  1  0.88755988  0.53747514  0.14961131  1
  Al  Al17  1  0.44222669  0.43560620  0.90266678  1
  Al  Al18  1  0.55656532  0.54019511  0.64751606  1
  Al  Al19  1  0.11049090  0.76705188  0.39579694  1
  Al  Al20  1  0.22209513  0.87440038  0.14948096  1
  Al  Al21  1  0.89520406  0.87644720  0.63928270  1
  Al  Al22  1  0.44153595  0.75369592  0.39581986  1
  Al  Al23  1  0.55732652  0.86271157  0.15812964  1
  Al  Al24  1  0.22079272  0.87723145  0.64440141  1
  Al  Al25  1  0.78843908  0.75309617  0.39594633  1
  Al  Al26  1  0.89424671  0.87022988  0.15531169  1
  Al  Al27  1  0.44345778  0.75893580  0.89906407  1
  Sc  Sc28  1  0.43652058  0.10225813  0.38193256  1
  Sc  Sc29  1  0.56300971  0.20924265  0.13276137  1
  Sc  Sc30  1  0.43389666  0.09406649  0.89821752  1
  Sc  Sc31  1  0.56505285  0.20695617  0.65081708  1
  Sc  Sc32  1  0.21993821  0.53427834  0.62895261  1
  Sc  Sc33  1  0.78088486  0.75837020  0.89356694  1
  Sc  Sc34  1  0.11515693  0.76041983  0.89415877  1
  Sc  Sc35  1  0.55665985  0.86526697  0.62903767  1
  N  N36  1  0.19453576  0.21640676  0.33385568  1
  N  N37  1  0.11042675  0.09360159  0.08682640  1
  N  N38  1  0.88802235  0.20777379  0.83670484  1
  N  N39  1  0.79829357  0.08945767  0.58228632  1
  N  N40  1  0.56905906  0.21482634  0.34472873  1
  N  N41  1  0.43413713  0.08531920  0.11613884  1
  N  N42  1  0.19868688  0.21398309  0.83695906  1
  N  N43  1  0.10912496  0.09420722  0.58752545  1
  N  N44  1  0.88912049  0.20825595  0.33790017  1
  N  N45  1  0.80766027  0.08029342  0.08833114  1
  N  N46  1  0.56585052  0.21344877  0.87046925  1
  N  N47  1  0.42317920  0.11085101  0.59762043  1
  N  N48  1  0.22105008  0.53644018  0.35030829  1
  N  N49  1  0.10888718  0.42969390  0.09159857  1
  N  N50  1  0.89554701  0.51995292  0.83525944  1
  N  N51  1  0.77452834  0.42955362  0.58821236  1
  N  N52  1  0.55776426  0.53960447  0.33507261  1
  N  N53  1  0.42986516  0.45553676  0.09094292  1
  N  N54  1  0.23031700  0.51628780  0.84093345  1
  N  N55  1  0.09709671  0.41479838  0.58068523  1
  N  N56  1  0.88575498  0.53764167  0.33797869  1
  N  N57  1  0.77688038  0.42752008  0.08845386  1
  N  N58  1  0.55424274  0.53968692  0.84023867  1
  N  N59  1  0.45780358  0.43482143  0.58044401  1
  N  N60  1  0.22180942  0.87553728  0.33904204  1
  N  N61  1  0.11184202  0.76036003  0.10606318  1
  N  N62  1  0.88127516  0.89231009  0.82728295  1
  N  N63  1  0.80530674  0.74752623  0.58773008  1
  N  N64  1  0.56578119  0.85076588  0.35227533  1
  N  N65  1  0.44351155  0.76286745  0.09180153  1
  N  N66  1  0.23055014  0.88259465  0.83566816  1
  N  N67  1  0.10752156  0.77836723  0.58676503  1
  N  N68  1  0.88936787  0.87357180  0.34364877  1
  N  N69  1  0.77808099  0.76252621  0.10613292  1
  N  N70  1  0.54901152  0.86009765  0.83755086  1
  N  N71  1  0.43194876  0.75038502  0.58279847  1
