# generated using pymatgen
data_Sc2Al7N9
_symmetry_space_group_name_H-M   'P 1'
_cell_length_a   9.77146994
_cell_length_b   9.74985020
_cell_length_c   10.09334979
_cell_angle_alpha   90.04483605
_cell_angle_beta   89.96011076
_cell_angle_gamma   59.77032861
_symmetry_Int_Tables_number   1
_chemical_formula_structural   Sc2Al7N9
_chemical_formula_sum   'Sc8 Al28 N36'
_cell_volume   830.83266762
_cell_formula_units_Z   4
loop_
 _symmetry_equiv_pos_site_id
 _symmetry_equiv_pos_as_xyz
  1  'x, y, z'
loop_
 _atom_site_type_symbol
 _atom_site_label
 _atom_site_symmetry_multiplicity
 _atom_site_fract_x
 _atom_site_fract_y
 _atom_site_fract_z
 _atom_site_occupancy
  Al  Al0  1  0.10344224  0.09769256  0.30840665  1
  Al  Al1  1  0.21064983  0.20743065  0.05713024  1
  Al  Al2  1  0.78614006  0.09878952  0.80693797  1
  Al  Al3  1  0.89368592  0.20559374  0.55931541  1
  Al  Al4  1  0.10669851  0.09724859  0.80794983  1
  Al  Al5  1  0.20665156  0.20792154  0.55698056  1
  Al  Al6  1  0.78845991  0.09424954  0.30718314  1
  Al  Al7  1  0.89449988  0.20557243  0.05722578  1
  Al  Al8  1  0.10418648  0.43023474  0.30482461  1
  Al  Al9  1  0.22125657  0.53636022  0.05953396  1
  Al  Al10  1  0.77704947  0.42525990  0.80906881  1
  Al  Al11  1  0.88939698  0.53362642  0.55475161  1
  Al  Al12  1  0.44242574  0.43834263  0.30265551  1
  Al  Al13  1  0.55504595  0.54403650  0.05767845  1
  Al  Al14  1  0.10442238  0.41973005  0.81119953  1
  Al  Al15  1  0.77597468  0.42751156  0.30937085  1
  Al  Al16  1  0.88981191  0.53209109  0.06189911  1
  Al  Al17  1  0.44983236  0.43018410  0.81065000  1
  Al  Al18  1  0.55536523  0.54097352  0.55846117  1
  Al  Al19  1  0.11281503  0.76083639  0.30231676  1
  Al  Al20  1  0.22475297  0.87677237  0.06212161  1
  Al  Al21  1  0.89684599  0.87158069  0.55160114  1
  Al  Al22  1  0.44532222  0.75582475  0.30499609  1
  Al  Al23  1  0.55370841  0.86488192  0.05652289  1
  Al  Al24  1  0.21885047  0.87517671  0.55470790  1
  Al  Al25  1  0.78201026  0.75614990  0.30332652  1
  Al  Al26  1  0.89328240  0.87501896  0.06430992  1
  Al  Al27  1  0.44092838  0.75730920  0.80981525  1
  Sc  Sc28  1  0.43629702  0.09514370  0.30930377  1
  Sc  Sc29  1  0.56391042  0.20829197  0.06693871  1
  Sc  Sc30  1  0.43525441  0.10110870  0.81973650  1
  Sc  Sc31  1  0.56390097  0.20806259  0.56028624  1
  Sc  Sc32  1  0.21688479  0.53747707  0.56313439  1
  Sc  Sc33  1  0.78721026  0.75486202  0.81971066  1
  Sc  Sc34  1  0.11538811  0.76433150  0.81935890  1
  Sc  Sc35  1  0.55921414  0.86249699  0.56304499  1
  N  N36  1  0.19613823  0.21776731  0.36786336  1
  N  N37  1  0.10923305  0.09605151  0.11940925  1
  N  N38  1  0.88954472  0.20778214  0.86599879  1
  N  N39  1  0.80190851  0.08377829  0.61721173  1
  N  N40  1  0.56449585  0.21527682  0.34302968  1
  N  N41  1  0.43399594  0.08793041  0.09449047  1
  N  N42  1  0.19795426  0.21255667  0.87139852  1
  N  N43  1  0.11019504  0.09214168  0.61628743  1
  N  N44  1  0.88801412  0.20805764  0.36927297  1
  N  N45  1  0.80406081  0.08661704  0.12197513  1
  N  N46  1  0.56989049  0.21383603  0.85351783  1
  N  N47  1  0.42396753  0.10610218  0.60229716  1
  N  N48  1  0.22021607  0.53817467  0.35150679  1
  N  N49  1  0.11004933  0.42682678  0.11607529  1
  N  N50  1  0.89450439  0.51765320  0.87512385  1
  N  N51  1  0.77504132  0.43019463  0.61533947  1
  N  N52  1  0.55498940  0.53990601  0.36686512  1
  N  N53  1  0.43472738  0.45152044  0.11533205  1
  N  N54  1  0.23018922  0.51475224  0.86582735  1
  N  N55  1  0.09647906  0.41686983  0.62218578  1
  N  N56  1  0.88713945  0.53840632  0.36214079  1
  N  N57  1  0.77566401  0.42675615  0.11833097  1
  N  N58  1  0.55614016  0.53999584  0.86823789  1
  N  N59  1  0.45112385  0.43995871  0.62351635  1
  N  N60  1  0.22237840  0.87319006  0.36116969  1
  N  N61  1  0.11478014  0.75989862  0.10824617  1
  N  N62  1  0.88117809  0.89469070  0.87905931  1
  N  N63  1  0.80357542  0.75002743  0.60863211  1
  N  N64  1  0.56561787  0.85202628  0.35411858  1
  N  N65  1  0.44439239  0.76015952  0.11619144  1
  N  N66  1  0.23087406  0.88555886  0.87415746  1
  N  N67  1  0.10597446  0.77707385  0.60924057  1
  N  N68  1  0.89042970  0.87125237  0.35882766  1
  N  N69  1  0.78017235  0.75975294  0.10871673  1
  N  N70  1  0.55005687  0.85857423  0.86503730  1
  N  N71  1  0.43099901  0.75356427  0.62033499  1
