# generated using pymatgen
data_Sc2Al7N9
_symmetry_space_group_name_H-M   'P 1'
_cell_length_a   10.13215340
_cell_length_b   10.11547272
_cell_length_c   9.05786339
_cell_angle_alpha   89.96270941
_cell_angle_beta   89.98414372
_cell_angle_gamma   59.67304343
_symmetry_Int_Tables_number   1
_chemical_formula_structural   Sc2Al7N9
_chemical_formula_sum   'Sc8 Al28 N36'
_cell_volume   801.31626011
_cell_formula_units_Z   4
loop_
 _symmetry_equiv_pos_site_id
 _symmetry_equiv_pos_as_xyz
  1  'x, y, z'
loop_
 _atom_site_type_symbol
 _atom_site_label
 _atom_site_symmetry_multiplicity
 _atom_site_fract_x
 _atom_site_fract_y
 _atom_site_fract_z
 _atom_site_occupancy
  Al  Al0  1  0.10518982  0.09664036  0.37159506  1
  Al  Al1  1  0.21045753  0.20549599  0.11643048  1
  Al  Al2  1  0.78726783  0.10068396  0.87513755  1
  Al  Al3  1  0.89271917  0.20630966  0.61827363  1
  Al  Al4  1  0.10440880  0.09736441  0.87254045  1
  Al  Al5  1  0.20570374  0.20814747  0.62412634  1
  Al  Al6  1  0.78847392  0.09488783  0.36422870  1
  Al  Al7  1  0.89365649  0.20818082  0.12571933  1
  Al  Al8  1  0.10003612  0.42501776  0.36159073  1
  Al  Al9  1  0.21915867  0.54028439  0.12186199  1
  Al  Al10  1  0.77859431  0.42383447  0.87040088  1
  Al  Al11  1  0.89171508  0.52897054  0.62033961  1
  Al  Al12  1  0.44925708  0.43514647  0.36445998  1
  Al  Al13  1  0.55637441  0.54238764  0.11811031  1
  Al  Al14  1  0.10788384  0.42339337  0.87888737  1
  Al  Al15  1  0.77471823  0.43019919  0.37237655  1
  Al  Al16  1  0.88608472  0.53613576  0.12051476  1
  Al  Al17  1  0.44383290  0.43410764  0.87329922  1
  Al  Al18  1  0.55581968  0.54192305  0.62537100  1
  Al  Al19  1  0.11205361  0.76471737  0.36108584  1
  Al  Al20  1  0.22085589  0.87605803  0.12307901  1
  Al  Al21  1  0.89521858  0.87580584  0.60872792  1
  Al  Al22  1  0.44246517  0.75337312  0.36335514  1
  Al  Al23  1  0.55661140  0.86478997  0.11934376  1
  Al  Al24  1  0.22200482  0.87681599  0.61605200  1
  Al  Al25  1  0.78690038  0.75327284  0.35914543  1
  Al  Al26  1  0.89425622  0.87174851  0.12437452  1
  Al  Al27  1  0.44198705  0.76035779  0.87760963  1
  Sc  Sc28  1  0.43378515  0.09903831  0.35373040  1
  Sc  Sc29  1  0.56112396  0.20925447  0.10718700  1
  Sc  Sc30  1  0.43618482  0.09706890  0.85653217  1
  Sc  Sc31  1  0.56610353  0.20730411  0.60610355  1
  Sc  Sc32  1  0.21889414  0.53254157  0.59978637  1
  Sc  Sc33  1  0.78495341  0.75767795  0.85902849  1
  Sc  Sc34  1  0.11648104  0.76186775  0.85855431  1
  Sc  Sc35  1  0.55733042  0.86081780  0.60025260  1
  N  N36  1  0.19750939  0.21287942  0.32742124  1
  N  N37  1  0.10733197  0.09346429  0.08483787  1
  N  N38  1  0.88911024  0.20846217  0.83222973  1
  N  N39  1  0.80184209  0.08745149  0.57706939  1
  N  N40  1  0.56578637  0.21325863  0.34734045  1
  N  N41  1  0.43472146  0.08724111  0.10125346  1
  N  N42  1  0.19779820  0.21441892  0.84102114  1
  N  N43  1  0.10933939  0.09390742  0.58375076  1
  N  N44  1  0.88894506  0.21122602  0.33697851  1
  N  N45  1  0.80231117  0.08652158  0.09275049  1
  N  N46  1  0.56838378  0.21553487  0.85339452  1
  N  N47  1  0.42310692  0.10584754  0.59981536  1
  N  N48  1  0.22064451  0.53614241  0.34123822  1
  N  N49  1  0.10782689  0.42938864  0.09317854  1
  N  N50  1  0.89681008  0.51889139  0.83719416  1
  N  N51  1  0.77360536  0.43069546  0.58674362  1
  N  N52  1  0.55953250  0.53817152  0.32898204  1
  N  N53  1  0.43343015  0.45071148  0.09007012  1
  N  N54  1  0.22847551  0.51678946  0.84365244  1
  N  N55  1  0.09803521  0.41446844  0.57499111  1
  N  N56  1  0.88398068  0.53680787  0.33245509  1
  N  N57  1  0.77698202  0.42663523  0.08359492  1
  N  N58  1  0.55398326  0.54190528  0.84060111  1
  N  N59  1  0.45332147  0.44013116  0.58040196  1
  N  N60  1  0.22060276  0.87607532  0.33537250  1
  N  N61  1  0.11325706  0.76077286  0.10222429  1
  N  N62  1  0.88246200  0.89394468  0.83307575  1
  N  N63  1  0.80363282  0.74757288  0.58826570  1
  N  N64  1  0.56478871  0.85238210  0.34319826  1
  N  N65  1  0.44193470  0.76204486  0.09263629  1
  N  N66  1  0.23141644  0.88382502  0.83462567  1
  N  N67  1  0.10946573  0.77480769  0.58769316  1
  N  N68  1  0.89061882  0.87183235  0.33973834  1
  N  N69  1  0.78067245  0.76143155  0.10257902  1
  N  N70  1  0.55113903  0.85887336  0.84342125  1
  N  N71  1  0.43313981  0.75057412  0.57709330  1
