# generated using pymatgen
data_Sc2Al7N9
_symmetry_space_group_name_H-M   'P 1'
_cell_length_a   10.08948278
_cell_length_b   10.07211496
_cell_length_c   9.18496040
_cell_angle_alpha   89.97183350
_cell_angle_beta   89.99511990
_cell_angle_gamma   59.67633730
_symmetry_Int_Tables_number   1
_chemical_formula_structural   Sc2Al7N9
_chemical_formula_sum   'Sc8 Al28 N36'
_cell_volume   805.69701066
_cell_formula_units_Z   4
loop_
 _symmetry_equiv_pos_site_id
 _symmetry_equiv_pos_as_xyz
  1  'x, y, z'
loop_
 _atom_site_type_symbol
 _atom_site_label
 _atom_site_symmetry_multiplicity
 _atom_site_fract_x
 _atom_site_fract_y
 _atom_site_fract_z
 _atom_site_occupancy
  Al  Al0  1  0.10497616  0.09671597  0.37370789  1
  Al  Al1  1  0.21042408  0.20557139  0.11852188  1
  Al  Al2  1  0.78753779  0.10031823  0.87735040  1
  Al  Al3  1  0.89274046  0.20635002  0.62080434  1
  Al  Al4  1  0.10450195  0.09737486  0.87433371  1
  Al  Al5  1  0.20544466  0.20827622  0.62628969  1
  Al  Al6  1  0.78858575  0.09482206  0.36692315  1
  Al  Al7  1  0.89388519  0.20774755  0.12702446  1
  Al  Al8  1  0.09953526  0.42484664  0.36443363  1
  Al  Al9  1  0.21870567  0.54105039  0.12583095  1
  Al  Al10  1  0.77851498  0.42386224  0.87242477  1
  Al  Al11  1  0.89186234  0.52854833  0.62278748  1
  Al  Al12  1  0.44994624  0.43481174  0.36691383  1
  Al  Al13  1  0.55618493  0.54268874  0.12008668  1
  Al  Al14  1  0.10814300  0.42349868  0.88020887  1
  Al  Al15  1  0.77484243  0.43001410  0.37416028  1
  Al  Al16  1  0.88599522  0.53674074  0.12257198  1
  Al  Al17  1  0.44332314  0.43437109  0.87573779  1
  Al  Al18  1  0.55577133  0.54187691  0.62731504  1
  Al  Al19  1  0.11159819  0.76551003  0.36609456  1
  Al  Al20  1  0.22064517  0.87570575  0.12488709  1
  Al  Al21  1  0.89509607  0.87657005  0.61338134  1
  Al  Al22  1  0.44213002  0.75310295  0.36617469  1
  Al  Al23  1  0.55705074  0.86447854  0.12362966  1
  Al  Al24  1  0.22214412  0.87704512  0.61910031  1
  Al  Al25  1  0.78767122  0.75292376  0.36404323  1
  Al  Al26  1  0.89451912  0.87108705  0.12754123  1
  Al  Al27  1  0.44224183  0.76052804  0.87915415  1
  Sc  Sc28  1  0.43371733  0.09955761  0.35482962  1
  Sc  Sc29  1  0.56124744  0.20909280  0.10799772  1
  Sc  Sc30  1  0.43635940  0.09680676  0.85751616  1
  Sc  Sc31  1  0.56619336  0.20734992  0.60787531  1
  Sc  Sc32  1  0.21910605  0.53221229  0.60061954  1
  Sc  Sc33  1  0.78430841  0.75791116  0.86037993  1
  Sc  Sc34  1  0.11668454  0.76118029  0.86002252  1
  Sc  Sc35  1  0.55706749  0.86117723  0.60096577  1
  N  N36  1  0.19689355  0.21317072  0.32530132  1
  N  N37  1  0.10763610  0.09329977  0.08248927  1
  N  N38  1  0.88905103  0.20839763  0.83045573  1
  N  N39  1  0.80215897  0.08767452  0.57464127  1
  N  N40  1  0.56621883  0.21314324  0.34601328  1
  N  N41  1  0.43482250  0.08673497  0.10108143  1
  N  N42  1  0.19755398  0.21455051  0.83838782  1
  N  N43  1  0.10926832  0.09397980  0.58175524  1
  N  N44  1  0.88894054  0.21096313  0.33423999  1
  N  N45  1  0.80308535  0.08548777  0.08939517  1
  N  N46  1  0.56838735  0.21564153  0.85320657  1
  N  N47  1  0.42276790  0.10657747  0.59871959  1
  N  N48  1  0.22038264  0.53649593  0.34119228  1
  N  N49  1  0.10807213  0.42969163  0.09058806  1
  N  N50  1  0.89695745  0.51858028  0.83442224  1
  N  N51  1  0.77360776  0.43058512  0.58444813  1
  N  N52  1  0.55954404  0.53825972  0.32688456  1
  N  N53  1  0.43261942  0.45144463  0.08785588  1
  N  N54  1  0.22893825  0.51606981  0.83916013  1
  N  N55  1  0.09758818  0.41405721  0.57278660  1
  N  N56  1  0.88391892  0.53704157  0.33035611  1
  N  N57  1  0.77702015  0.42674855  0.08161400  1
  N  N58  1  0.55380892  0.54183932  0.83828401  1
  N  N59  1  0.45397847  0.43998893  0.57729748  1
  N  N60  1  0.22046950  0.87598555  0.33311666  1
  N  N61  1  0.11297595  0.76060103  0.09874588  1
  N  N62  1  0.88214568  0.89441038  0.82793659  1
  N  N63  1  0.80431794  0.74729338  0.58643543  1
  N  N64  1  0.56513733  0.85201831  0.34313074  1
  N  N65  1  0.44219651  0.76233450  0.09008424  1
  N  N66  1  0.23157573  0.88385655  0.83207244  1
  N  N67  1  0.10935461  0.77532437  0.58608396  1
  N  N68  1  0.89066123  0.87178247  0.33747617  1
  N  N69  1  0.78023080  0.76179089  0.09931434  1
  N  N70  1  0.55076528  0.85885729  0.83855555  1
  N  N71  1  0.43275352  0.75030599  0.57493691  1
