# generated using pymatgen
data_Sc2Al7N9
_symmetry_space_group_name_H-M   'P 1'
_cell_length_a   10.09490463
_cell_length_b   10.07442657
_cell_length_c   9.17607604
_cell_angle_alpha   89.99069380
_cell_angle_beta   89.94969117
_cell_angle_gamma   59.66043590
_symmetry_Int_Tables_number   1
_chemical_formula_structural   Sc2Al7N9
_chemical_formula_sum   'Sc8 Al28 N36'
_cell_volume   805.40402358
_cell_formula_units_Z   4
loop_
 _symmetry_equiv_pos_site_id
 _symmetry_equiv_pos_as_xyz
  1  'x, y, z'
loop_
 _atom_site_type_symbol
 _atom_site_label
 _atom_site_symmetry_multiplicity
 _atom_site_fract_x
 _atom_site_fract_y
 _atom_site_fract_z
 _atom_site_occupancy
  Al  Al0  1  0.10121852  0.09896192  0.33098994  1
  Al  Al1  1  0.20926137  0.20766631  0.08681550  1
  Al  Al2  1  0.78731831  0.09792208  0.82881780  1
  Al  Al3  1  0.89391101  0.20705090  0.58493868  1
  Al  Al4  1  0.10801684  0.09607977  0.83125728  1
  Al  Al5  1  0.20608435  0.20702833  0.57820550  1
  Al  Al6  1  0.78815155  0.09765672  0.33716847  1
  Al  Al7  1  0.89250862  0.20714834  0.07792903  1
  Al  Al8  1  0.10475087  0.42936464  0.32978904  1
  Al  Al9  1  0.22100743  0.53552592  0.08925870  1
  Al  Al10  1  0.77657112  0.42760125  0.83163670  1
  Al  Al11  1  0.88884916  0.53389186  0.57565284  1
  Al  Al12  1  0.44334962  0.43748788  0.33051662  1
  Al  Al13  1  0.55570630  0.54330430  0.08240476  1
  Al  Al14  1  0.10360623  0.41966129  0.83532633  1
  Al  Al15  1  0.77578613  0.42646015  0.33243238  1
  Al  Al16  1  0.88968255  0.53065608  0.09031487  1
  Al  Al17  1  0.44899278  0.43209495  0.83702400  1
  Al  Al18  1  0.55612328  0.54129973  0.58019045  1
  Al  Al19  1  0.11465123  0.75919439  0.33077151  1
  Al  Al20  1  0.22486535  0.87762934  0.09204931  1
  Al  Al21  1  0.89762035  0.87040653  0.57225416  1
  Al  Al22  1  0.44618588  0.75530936  0.33077622  1
  Al  Al23  1  0.55418402  0.86460435  0.09073573  1
  Al  Al24  1  0.21861824  0.87545880  0.57424581  1
  Al  Al25  1  0.78251141  0.75562822  0.33170295  1
  Al  Al26  1  0.89241710  0.87757577  0.09692173  1
  Al  Al27  1  0.43929466  0.75772525  0.83403483  1
  Sc  Sc28  1  0.43725761  0.09535906  0.34620571  1
  Sc  Sc29  1  0.56444742  0.20812564  0.09777517  1
  Sc  Sc30  1  0.43317708  0.09998403  0.85135437  1
  Sc  Sc31  1  0.56301799  0.20808745  0.59657391  1
  Sc  Sc32  1  0.21689545  0.53692079  0.59651748  1
  Sc  Sc33  1  0.78880278  0.75513053  0.85322859  1
  Sc  Sc34  1  0.11442989  0.76673653  0.85235268  1
  Sc  Sc35  1  0.55995032  0.86065907  0.59793010  1
  N  N36  1  0.19664247  0.21595847  0.36764169  1
  N  N37  1  0.10555212  0.09725898  0.12470986  1
  N  N38  1  0.88900086  0.20891139  0.86745466  1
  N  N39  1  0.80281886  0.08307610  0.61640453  1
  N  N40  1  0.56472848  0.21560516  0.35451736  1
  N  N41  1  0.43447391  0.08784513  0.10531358  1
  N  N42  1  0.19795360  0.21239545  0.87833529  1
  N  N43  1  0.11100065  0.09098389  0.62068423  1
  N  N44  1  0.88856902  0.21053035  0.37762617  1
  N  N45  1  0.80187185  0.09070513  0.12997311  1
  N  N46  1  0.56926049  0.21306676  0.85658831  1
  N  N47  1  0.42304193  0.10480971  0.60435794  1
  N  N48  1  0.22068686  0.53655050  0.35816569  1
  N  N49  1  0.10985665  0.42741730  0.12241274  1
  N  N50  1  0.89424890  0.51811257  0.88208309  1
  N  N51  1  0.77454620  0.43232707  0.62028330  1
  N  N52  1  0.55630947  0.53941723  0.37057486  1
  N  N53  1  0.43554371  0.44983432  0.11914527  1
  N  N54  1  0.22804068  0.51668697  0.86718841  1
  N  N55  1  0.09620816  0.41601642  0.62354687  1
  N  N56  1  0.88675543  0.53706805  0.36354991  1
  N  N57  1  0.77526804  0.42550750  0.12390071  1
  N  N58  1  0.55661578  0.54051465  0.87414825  1
  N  N59  1  0.45122385  0.44124365  0.62509335  1
  N  N60  1  0.22213317  0.87396650  0.36174893  1
  N  N61  1  0.11575194  0.75894498  0.11550328  1
  N  N62  1  0.88152580  0.89530895  0.88641665  1
  N  N63  1  0.80499229  0.74915329  0.61174532  1
  N  N64  1  0.56586815  0.85176933  0.35928098  1
  N  N65  1  0.44495936  0.75918711  0.12248507  1
  N  N66  1  0.23058975  0.88598288  0.88233460  1
  N  N67  1  0.10679573  0.77699058  0.61155110  1
  N  N68  1  0.89125692  0.87094923  0.35892433  1
  N  N69  1  0.78034260  0.75943582  0.11570909  1
  N  N70  1  0.55095260  0.85826666  0.86296778  1
  N  N71  1  0.42989684  0.75351396  0.62160822  1
