# generated using pymatgen
data_Sc2Al7N9
_symmetry_space_group_name_H-M   'P 1'
_cell_length_a   10.27556488
_cell_length_b   10.25605565
_cell_length_c   8.64706928
_cell_angle_alpha   89.96215431
_cell_angle_beta   89.93884554
_cell_angle_gamma   59.66451848
_symmetry_Int_Tables_number   1
_chemical_formula_structural   Sc2Al7N9
_chemical_formula_sum   'Sc8 Al28 N36'
_cell_volume   786.51552003
_cell_formula_units_Z   4
loop_
 _symmetry_equiv_pos_site_id
 _symmetry_equiv_pos_as_xyz
  1  'x, y, z'
loop_
 _atom_site_type_symbol
 _atom_site_label
 _atom_site_symmetry_multiplicity
 _atom_site_fract_x
 _atom_site_fract_y
 _atom_site_fract_z
 _atom_site_occupancy
  Al  Al0  1  0.10368523  0.09698409  0.34578020  1
  Al  Al1  1  0.21007943  0.20691539  0.10281161  1
  Al  Al2  1  0.78683993  0.09921977  0.84559284  1
  Al  Al3  1  0.89313589  0.20751226  0.59629550  1
  Al  Al4  1  0.10625668  0.09677859  0.84983398  1
  Al  Al5  1  0.20736329  0.20664360  0.59748322  1
  Al  Al6  1  0.78810342  0.09603021  0.34816048  1
  Al  Al7  1  0.89212262  0.20756483  0.09844011  1
  Al  Al8  1  0.10286742  0.42738561  0.34633628  1
  Al  Al9  1  0.22057893  0.53734671  0.10661204  1
  Al  Al10  1  0.77718688  0.42612289  0.85193415  1
  Al  Al11  1  0.88923232  0.53199307  0.59518991  1
  Al  Al12  1  0.44584253  0.43576326  0.34958866  1
  Al  Al13  1  0.55571580  0.54240922  0.10385548  1
  Al  Al14  1  0.10628276  0.42223245  0.85990515  1
  Al  Al15  1  0.77541613  0.42829676  0.34859836  1
  Al  Al16  1  0.88794371  0.53418912  0.10497950  1
  Al  Al17  1  0.44629535  0.43341843  0.85678139  1
  Al  Al18  1  0.55669715  0.54123332  0.60304907  1
  Al  Al19  1  0.11309782  0.76223873  0.34629203  1
  Al  Al20  1  0.22289807  0.87638625  0.10578550  1
  Al  Al21  1  0.89591036  0.87288870  0.58503382  1
  Al  Al22  1  0.44372920  0.75529719  0.34793403  1
  Al  Al23  1  0.55620844  0.86402370  0.10628991  1
  Al  Al24  1  0.21983559  0.87623024  0.58999714  1
  Al  Al25  1  0.78490293  0.75491044  0.34691294  1
  Al  Al26  1  0.89301640  0.87522729  0.10724119  1
  Al  Al27  1  0.44153592  0.75888498  0.86027507  1
  Sc  Sc28  1  0.43601906  0.09683032  0.34993561  1
  Sc  Sc29  1  0.56344489  0.20845715  0.10252574  1
  Sc  Sc30  1  0.43391417  0.09826591  0.85448977  1
  Sc  Sc31  1  0.56391604  0.20773764  0.60150043  1
  Sc  Sc32  1  0.21815023  0.53436329  0.59912237  1
  Sc  Sc33  1  0.78700990  0.75662444  0.85635596  1
  Sc  Sc34  1  0.11541710  0.76464670  0.85590221  1
  Sc  Sc35  1  0.55778557  0.86066953  0.59965840  1
  N  N36  1  0.19930089  0.21341991  0.34944335  1
  N  N37  1  0.10662963  0.09533367  0.10820307  1
  N  N38  1  0.88918237  0.20900814  0.85468929  1
  N  N39  1  0.80110516  0.08568809  0.60193779  1
  N  N40  1  0.56509217  0.21401387  0.35188516  1
  N  N41  1  0.43469493  0.08857226  0.10313172  1
  N  N42  1  0.19943472  0.21280129  0.85999958  1
  N  N43  1  0.10964065  0.09223938  0.60420124  1
  N  N44  1  0.88859275  0.21066025  0.35908131  1
  N  N45  1  0.79983859  0.08944746  0.11387284  1
  N  N46  1  0.56808573  0.21418883  0.85339336  1
  N  N47  1  0.42446917  0.10356563  0.60197736  1
  N  N48  1  0.22094419  0.53540199  0.34399809  1
  N  N49  1  0.10814878  0.42782572  0.10709825  1
  N  N50  1  0.89432381  0.52116393  0.86066074  1
  N  N51  1  0.77463684  0.43067030  0.60428094  1
  N  N52  1  0.55759284  0.53896278  0.34937204  1
  N  N53  1  0.43632626  0.44801722  0.10341665  1
  N  N54  1  0.22742428  0.51918983  0.86050425  1
  N  N55  1  0.09877627  0.41719434  0.59892101  1
  N  N56  1  0.88568150  0.53639552  0.34956666  1
  N  N57  1  0.77585698  0.42681401  0.10552548  1
  N  N58  1  0.55576723  0.54100741  0.85577440  1
  N  N59  1  0.45036087  0.44036010  0.60109673  1
  N  N60  1  0.22174954  0.87517685  0.34946501  1
  N  N61  1  0.11442418  0.76040170  0.11316752  1
  N  N62  1  0.88366291  0.89161144  0.86568793  1
  N  N63  1  0.80167862  0.74996497  0.59472250  1
  N  N64  1  0.56444208  0.85297395  0.34542523  1
  N  N65  1  0.44311484  0.76002899  0.10645898  1
  N  N66  1  0.22982299  0.88366291  0.86217788  1
  N  N67  1  0.10818707  0.77448996  0.59422508  1
  N  N68  1  0.89041637  0.87282858  0.35083861  1
  N  N69  1  0.78214655  0.75972097  0.11309205  1
  N  N70  1  0.55222799  0.85876227  0.85847650  1
  N  N71  1  0.43228898  0.75342306  0.59784047  1
