# generated using pymatgen
data_Sc2Al7N9
_symmetry_space_group_name_H-M   'P 1'
_cell_length_a   10.13875755
_cell_length_b   10.11818877
_cell_length_c   9.04710329
_cell_angle_alpha   89.98645290
_cell_angle_beta   89.95078912
_cell_angle_gamma   59.65814375
_symmetry_Int_Tables_number   1
_chemical_formula_structural   Sc2Al7N9
_chemical_formula_sum   'Sc8 Al28 N36'
_cell_volume   800.97903486
_cell_formula_units_Z   4
loop_
 _symmetry_equiv_pos_site_id
 _symmetry_equiv_pos_as_xyz
  1  'x, y, z'
loop_
 _atom_site_type_symbol
 _atom_site_label
 _atom_site_symmetry_multiplicity
 _atom_site_fract_x
 _atom_site_fract_y
 _atom_site_fract_z
 _atom_site_occupancy
  Al  Al0  1  0.10121926  0.09895365  0.33280783  1
  Al  Al1  1  0.20924711  0.20765376  0.08936319  1
  Al  Al2  1  0.78723180  0.09792974  0.83104048  1
  Al  Al3  1  0.89382147  0.20720608  0.58704724  1
  Al  Al4  1  0.10805933  0.09596985  0.83355715  1
  Al  Al5  1  0.20638076  0.20687258  0.58028832  1
  Al  Al6  1  0.78810970  0.09777414  0.33942294  1
  Al  Al7  1  0.89235411  0.20725355  0.07989963  1
  Al  Al8  1  0.10451321  0.42892999  0.33171314  1
  Al  Al9  1  0.22082149  0.53598999  0.09396980  1
  Al  Al10  1  0.77655643  0.42774034  0.83399533  1
  Al  Al11  1  0.88887542  0.53345565  0.57749848  1
  Al  Al12  1  0.44398600  0.43699114  0.33310920  1
  Al  Al13  1  0.55578326  0.54315511  0.08466342  1
  Al  Al14  1  0.10400683  0.42012117  0.83837711  1
  Al  Al15  1  0.77579049  0.42637467  0.33416838  1
  Al  Al16  1  0.88940363  0.53124198  0.09287887  1
  Al  Al17  1  0.44844741  0.43238594  0.83993656  1
  Al  Al18  1  0.55629339  0.54124072  0.58242664  1
  Al  Al19  1  0.11439921  0.75979212  0.33463085  1
  Al  Al20  1  0.22451775  0.87742546  0.09478630  1
  Al  Al21  1  0.89721750  0.87088399  0.57388778  1
  Al  Al22  1  0.44582562  0.75520502  0.33277540  1
  Al  Al23  1  0.55479337  0.86438711  0.09573113  1
  Al  Al24  1  0.21887222  0.87569307  0.57582646  1
  Al  Al25  1  0.78305576  0.75551286  0.33548413  1
  Al  Al26  1  0.89254152  0.87719752  0.09975136  1
  Al  Al27  1  0.43958502  0.75799741  0.83720580  1
  Sc  Sc28  1  0.43700527  0.09584456  0.34722660  1
  Sc  Sc29  1  0.56448538  0.20813054  0.09891578  1
  Sc  Sc30  1  0.43323422  0.09942600  0.85257552  1
  Sc  Sc31  1  0.56298205  0.20805593  0.59806895  1
  Sc  Sc32  1  0.21726346  0.53629814  0.59746372  1
  Sc  Sc33  1  0.78836213  0.75542343  0.85451454  1
  Sc  Sc34  1  0.11465125  0.76630735  0.85378439  1
  Sc  Sc35  1  0.55937696  0.86078051  0.59868233  1
  N  N36  1  0.19709300  0.21552543  0.36493965  1
  N  N37  1  0.10536291  0.09720592  0.12247747  1
  N  N38  1  0.88901065  0.20895527  0.86503467  1
  N  N39  1  0.80243308  0.08340810  0.61372255  1
  N  N40  1  0.56475390  0.21542447  0.35398802  1
  N  N41  1  0.43453798  0.08802263  0.10496640  1
  N  N42  1  0.19834272  0.21230493  0.87609433  1
  N  N43  1  0.11098016  0.09099349  0.61847715  1
  N  N44  1  0.88859240  0.21068715  0.37566743  1
  N  N45  1  0.80145424  0.09080143  0.12761763  1
  N  N46  1  0.56910787  0.21304771  0.85562216  1
  N  N47  1  0.42323729  0.10456374  0.60352446  1
  N  N48  1  0.22082356  0.53613954  0.35465127  1
  N  N49  1  0.10960652  0.42742632  0.12015758  1
  N  N50  1  0.89408272  0.51885862  0.87968680  1
  N  N51  1  0.77457428  0.43226827  0.61829156  1
  N  N52  1  0.55656427  0.53935796  0.36819205  1
  N  N53  1  0.43595482  0.44931852  0.11667930  1
  N  N54  1  0.22783560  0.51729878  0.86576125  1
  N  N55  1  0.09657732  0.41626497  0.62068412  1
  N  N56  1  0.88670003  0.53663066  0.36104174  1
  N  N57  1  0.77532019  0.42548989  0.12152109  1
  N  N58  1  0.55663274  0.54051054  0.87189807  1
  N  N59  1  0.45100752  0.44106535  0.62185572  1
  N  N60  1  0.22226587  0.87432530  0.35919898  1
  N  N61  1  0.11557820  0.75921896  0.11527469  1
  N  N62  1  0.88204194  0.89443713  0.88333474  1
  N  N63  1  0.80419244  0.74938332  0.60726887  1
  N  N64  1  0.56542465  0.85219681  0.35554246  1
  N  N65  1  0.44477153  0.75912595  0.12009626  1
  N  N66  1  0.23024796  0.88558099  0.88004435  1
  N  N67  1  0.10713504  0.77639829  0.60693207  1
  N  N68  1  0.89103685  0.87148044  0.35667156  1
  N  N69  1  0.78073912  0.75940948  0.11540758  1
  N  N70  1  0.55126205  0.85835168  0.86146958  1
  N  N71  1  0.43015473  0.75363051  0.61880941  1
