# generated using pymatgen
data_Sc2Al7N9
_symmetry_space_group_name_H-M   'P 1'
_cell_length_a   9.79949613
_cell_length_b   9.77962127
_cell_length_c   10.01828893
_cell_angle_alpha   90.03477314
_cell_angle_beta   89.95651108
_cell_angle_gamma   59.73807738
_symmetry_Int_Tables_number   1
_chemical_formula_structural   Sc2Al7N9
_chemical_formula_sum   'Sc8 Al28 N36'
_cell_volume   829.27249204
_cell_formula_units_Z   4
loop_
 _symmetry_equiv_pos_site_id
 _symmetry_equiv_pos_as_xyz
  1  'x, y, z'
loop_
 _atom_site_type_symbol
 _atom_site_label
 _atom_site_symmetry_multiplicity
 _atom_site_fract_x
 _atom_site_fract_y
 _atom_site_fract_z
 _atom_site_occupancy
  Al  Al0  1  0.10324773  0.09769271  0.32429335  1
  Al  Al1  1  0.21048993  0.20740788  0.07384689  1
  Al  Al2  1  0.78609462  0.09917138  0.82274136  1
  Al  Al3  1  0.89366824  0.20587313  0.57531264  1
  Al  Al4  1  0.10666025  0.09736855  0.82378550  1
  Al  Al5  1  0.20639648  0.20776854  0.57256816  1
  Al  Al6  1  0.78856520  0.09446162  0.32399050  1
  Al  Al7  1  0.89421181  0.20578630  0.07298561  1
  Al  Al8  1  0.10442366  0.43032224  0.32127803  1
  Al  Al9  1  0.22121466  0.53594310  0.07501909  1
  Al  Al10  1  0.77679939  0.42556871  0.82480063  1
  Al  Al11  1  0.88932464  0.53387328  0.57069006  1
  Al  Al12  1  0.44204183  0.43856397  0.31932121  1
  Al  Al13  1  0.55489461  0.54408341  0.07395976  1
  Al  Al14  1  0.10397732  0.41939446  0.82683994  1
  Al  Al15  1  0.77599809  0.42748523  0.32535711  1
  Al  Al16  1  0.88991305  0.53153611  0.07823966  1
  Al  Al17  1  0.44991513  0.43045241  0.82669752  1
  Al  Al18  1  0.55539330  0.54110957  0.57393205  1
  Al  Al19  1  0.11309316  0.76036582  0.31830183  1
  Al  Al20  1  0.22496065  0.87707487  0.07854995  1
  Al  Al21  1  0.89723488  0.87132183  0.56798297  1
  Al  Al22  1  0.44564812  0.75589635  0.32161800  1
  Al  Al23  1  0.55324611  0.86500804  0.07204340  1
  Al  Al24  1  0.21862338  0.87520056  0.57056371  1
  Al  Al25  1  0.78185288  0.75609438  0.31938528  1
  Al  Al26  1  0.89294149  0.87575079  0.08094836  1
  Al  Al27  1  0.44047071  0.75723848  0.82540639  1
  Sc  Sc28  1  0.43686850  0.09443810  0.32764120  1
  Sc  Sc29  1  0.56374381  0.20832849  0.08435611  1
  Sc  Sc30  1  0.43472999  0.10169324  0.83670418  1
  Sc  Sc31  1  0.56376127  0.20819945  0.57781136  1
  Sc  Sc32  1  0.21647045  0.53794110  0.58145077  1
  Sc  Sc33  1  0.78793359  0.75473246  0.83784265  1
  Sc  Sc34  1  0.11508129  0.76512690  0.83734104  1
  Sc  Sc35  1  0.55999656  0.86196928  0.58189745  1
  N  N36  1  0.19606582  0.21754620  0.38225244  1
  N  N37  1  0.10879612  0.09619000  0.13441797  1
  N  N38  1  0.88934931  0.20811033  0.88074085  1
  N  N39  1  0.80217240  0.08384689  0.63175906  1
  N  N40  1  0.56450137  0.21537649  0.35846857  1
  N  N41  1  0.43404205  0.08763743  0.11000049  1
  N  N42  1  0.19764841  0.21262418  0.88673458  1
  N  N43  1  0.11016704  0.09212805  0.63114542  1
  N  N44  1  0.88809194  0.20831794  0.38441883  1
  N  N45  1  0.80391529  0.08711315  0.13747162  1
  N  N46  1  0.56972568  0.21408002  0.86835373  1
  N  N47  1  0.42364211  0.10615682  0.61671547  1
  N  N48  1  0.22006238  0.53828336  0.36789359  1
  N  N49  1  0.11012344  0.42696559  0.13131960  1
  N  N50  1  0.89450120  0.51716916  0.89032491  1
  N  N51  1  0.77486442  0.43059499  0.63018993  1
  N  N52  1  0.55509274  0.53980798  0.38155054  1
  N  N53  1  0.43430687  0.45171570  0.13040100  1
  N  N54  1  0.22980683  0.51467290  0.87966474  1
  N  N55  1  0.09630899  0.41635309  0.63675681  1
  N  N56  1  0.88710298  0.53844157  0.37691133  1
  N  N57  1  0.77553749  0.42667179  0.13342948  1
  N  N58  1  0.55594890  0.54024333  0.88344902  1
  N  N59  1  0.45135499  0.44031502  0.63827914  1
  N  N60  1  0.22219983  0.87307677  0.37588781  1
  N  N61  1  0.11492747  0.75964237  0.12257331  1
  N  N62  1  0.88073299  0.89573778  0.89450748  1
  N  N63  1  0.80484458  0.74947473  0.62505858  1
  N  N64  1  0.56619315  0.85129562  0.37092181  1
  N  N65  1  0.44457887  0.76025610  0.13149610  1
  N  N66  1  0.23105139  0.88604197  0.88946097  1
  N  N67  1  0.10592167  0.77768532  0.62555144  1
  N  N68  1  0.89064068  0.87092446  0.37370398  1
  N  N69  1  0.77986825  0.75984730  0.12303790  1
  N  N70  1  0.54984946  0.85868795  0.87831936  1
  N  N71  1  0.43069914  0.75341622  0.63484388  1
