# generated using pymatgen
data_Sc2Al7N9
_symmetry_space_group_name_H-M   'P 1'
_cell_length_a   9.76845198
_cell_length_b   9.74346770
_cell_length_c   10.09154412
_cell_angle_alpha   90.01114575
_cell_angle_beta   90.05762345
_cell_angle_gamma   59.80993329
_symmetry_Int_Tables_number   1
_chemical_formula_structural   Sc2Al7N9
_chemical_formula_sum   'Sc8 Al28 N36'
_cell_volume   830.21836332
_cell_formula_units_Z   4
loop_
 _symmetry_equiv_pos_site_id
 _symmetry_equiv_pos_as_xyz
  1  'x, y, z'
loop_
 _atom_site_type_symbol
 _atom_site_label
 _atom_site_symmetry_multiplicity
 _atom_site_fract_x
 _atom_site_fract_y
 _atom_site_fract_z
 _atom_site_occupancy
  Al  Al0  1  0.10462734  0.09687573  0.40177407  1
  Al  Al1  1  0.20937756  0.20807856  0.15248023  1
  Al  Al2  1  0.78885543  0.09662865  0.90447718  1
  Al  Al3  1  0.89269536  0.20642615  0.64909422  1
  Al  Al4  1  0.10498027  0.09800304  0.89980053  1
  Al  Al5  1  0.20771108  0.20783933  0.65134145  1
  Al  Al6  1  0.78556263  0.09633093  0.39965699  1
  Al  Al7  1  0.89533568  0.20476787  0.15199465  1
  Al  Al8  1  0.09986008  0.42663662  0.39858768  1
  Al  Al9  1  0.21847443  0.54195254  0.15860543  1
  Al  Al10  1  0.77755163  0.42439469  0.89985613  1
  Al  Al11  1  0.89086123  0.52994486  0.64898608  1
  Al  Al12  1  0.45177199  0.43155310  0.39799002  1
  Al  Al13  1  0.55448243  0.54476259  0.15053349  1
  Al  Al14  1  0.10812611  0.42314932  0.90244637  1
  Al  Al15  1  0.77598065  0.42864430  0.40005461  1
  Al  Al16  1  0.88754985  0.53748781  0.15353512  1
  Al  Al17  1  0.44221642  0.43562033  0.90659526  1
  Al  Al18  1  0.55655479  0.54020683  0.65143971  1
  Al  Al19  1  0.11048097  0.76706447  0.39972454  1
  Al  Al20  1  0.22208613  0.87441240  0.15340478  1
  Al  Al21  1  0.89519295  0.87645965  0.64320970  1
  Al  Al22  1  0.44152490  0.75371038  0.39974945  1
  Al  Al23  1  0.55731518  0.86272380  0.16205326  1
  Al  Al24  1  0.22078036  0.87724554  0.64832938  1
  Al  Al25  1  0.78842715  0.75310906  0.39987378  1
  Al  Al26  1  0.89423575  0.87024387  0.15924159  1
  Al  Al27  1  0.44344717  0.75894743  0.90298629  1
  Sc  Sc28  1  0.43651157  0.10226989  0.38585481  1
  Sc  Sc29  1  0.56300113  0.20925405  0.13668364  1
  Sc  Sc30  1  0.43388295  0.09408161  0.90214518  1
  Sc  Sc31  1  0.56503953  0.20697041  0.65474540  1
  Sc  Sc32  1  0.21992796  0.53429251  0.63288326  1
  Sc  Sc33  1  0.78087374  0.75838453  0.89749794  1
  Sc  Sc34  1  0.11514421  0.76043489  0.89808995  1
  Sc  Sc35  1  0.55664881  0.86528144  0.63296898  1
  N  N36  1  0.19452488  0.21642074  0.33778055  1
  N  N37  1  0.11041654  0.09361505  0.09075193  1
  N  N38  1  0.88801187  0.20778761  0.84063137  1
  N  N39  1  0.79828117  0.08947214  0.58621481  1
  N  N40  1  0.56904976  0.21483876  0.34864948  1
  N  N41  1  0.43412566  0.08533267  0.12006333  1
  N  N42  1  0.19867532  0.21399658  0.84088081  1
  N  N43  1  0.10911357  0.09422052  0.59144922  1
  N  N44  1  0.88910948  0.20826826  0.34182440  1
  N  N45  1  0.80765146  0.08030451  0.09225222  1
  N  N46  1  0.56583856  0.21346219  0.87439483  1
  N  N47  1  0.42316877  0.11086409  0.60154194  1
  N  N48  1  0.22103931  0.53645300  0.35423054  1
  N  N49  1  0.10887664  0.42970647  0.09552032  1
  N  N50  1  0.89553440  0.51996800  0.83918606  1
  N  N51  1  0.77451879  0.42956636  0.59213837  1
  N  N52  1  0.55775361  0.53961820  0.33900102  1
  N  N53  1  0.42985558  0.45554998  0.09486931  1
  N  N54  1  0.23030632  0.51630289  0.84486131  1
  N  N55  1  0.09708570  0.41481377  0.58461102  1
  N  N56  1  0.88574501  0.53765452  0.34190221  1
  N  N57  1  0.77686875  0.42753350  0.09237975  1
  N  N58  1  0.55423230  0.53969883  0.84416119  1
  N  N59  1  0.45779198  0.43483381  0.58436653  1
  N  N60  1  0.22179987  0.87554954  0.34296576  1
  N  N61  1  0.11183074  0.76037340  0.10999079  1
  N  N62  1  0.88126473  0.89232155  0.83120735  1
  N  N63  1  0.80529414  0.74753999  0.59165520  1
  N  N64  1  0.56577012  0.85077801  0.35619721  1
  N  N65  1  0.44350136  0.76287896  0.09572339  1
  N  N66  1  0.23053780  0.88260838  0.83959420  1
  N  N67  1  0.10751059  0.77838035  0.59068991  1
  N  N68  1  0.88935648  0.87358585  0.34757667  1
  N  N69  1  0.77807081  0.76253980  0.11006008  1
  N  N70  1  0.54900067  0.86011227  0.84147903  1
  N  N71  1  0.43193781  0.75039950  0.58672659  1
