# generated using pymatgen
data_Sc2Al7N9
_symmetry_space_group_name_H-M   'P 1'
_cell_length_a   10.04951784
_cell_length_b   10.02928131
_cell_length_c   9.30922139
_cell_angle_alpha   89.99596753
_cell_angle_beta   89.94896494
_cell_angle_gamma   59.66457471
_symmetry_Int_Tables_number   1
_chemical_formula_structural   Sc2Al7N9
_chemical_formula_sum   'Sc8 Al28 N36'
_cell_volume   809.80595797
_cell_formula_units_Z   4
loop_
 _symmetry_equiv_pos_site_id
 _symmetry_equiv_pos_as_xyz
  1  'x, y, z'
loop_
 _atom_site_type_symbol
 _atom_site_label
 _atom_site_symmetry_multiplicity
 _atom_site_fract_x
 _atom_site_fract_y
 _atom_site_fract_z
 _atom_site_occupancy
  Al  Al0  1  0.10138842  0.09881736  0.32941110  1
  Al  Al1  1  0.20935366  0.20763848  0.08443312  1
  Al  Al2  1  0.78733853  0.09806837  0.82702495  1
  Al  Al3  1  0.89395256  0.20689234  0.58283103  1
  Al  Al4  1  0.10784037  0.09628924  0.82929685  1
  Al  Al5  1  0.20582357  0.20717695  0.57649561  1
  Al  Al6  1  0.78825407  0.09730238  0.33493729  1
  Al  Al7  1  0.89271006  0.20700100  0.07646022  1
  Al  Al8  1  0.10491747  0.42979795  0.32815814  1
  Al  Al9  1  0.22119143  0.53509656  0.08479659  1
  Al  Al10  1  0.77659266  0.42733907  0.82969333  1
  Al  Al11  1  0.88882290  0.53428154  0.57426134  1
  Al  Al12  1  0.44271190  0.43796078  0.32835624  1
  Al  Al13  1  0.55557159  0.54344818  0.08058339  1
  Al  Al14  1  0.10328830  0.41926207  0.83279027  1
  Al  Al15  1  0.77581272  0.42663979  0.33089936  1
  Al  Al16  1  0.88992984  0.53020087  0.08784209  1
  Al  Al17  1  0.44949478  0.43181655  0.83448175  1
  Al  Al18  1  0.55598010  0.54135496  0.57829186  1
  Al  Al19  1  0.11475918  0.75876209  0.32725842  1
  Al  Al20  1  0.22516776  0.87778087  0.08934610  1
  Al  Al21  1  0.89796259  0.87004986  0.57114879  1
  Al  Al22  1  0.44645419  0.75550543  0.32907525  1
  Al  Al23  1  0.55357337  0.86478562  0.08548042  1
  Al  Al24  1  0.21838790  0.87524420  0.57311116  1
  Al  Al25  1  0.78201047  0.75576709  0.32823725  1
  Al  Al26  1  0.89231248  0.87782032  0.09392728  1
  Al  Al27  1  0.43911643  0.75743682  0.83144920  1
  Sc  Sc28  1  0.43751873  0.09481492  0.34484089  1
  Sc  Sc29  1  0.56432742  0.20813736  0.09643113  1
  Sc  Sc30  1  0.43313233  0.10061760  0.84973714  1
  Sc  Sc31  1  0.56312627  0.20810577  0.59468524  1
  Sc  Sc32  1  0.21653743  0.53749723  0.59533866  1
  Sc  Sc33  1  0.78921313  0.75484024  0.85167523  1
  Sc  Sc34  1  0.11427999  0.76705771  0.85071414  1
  Sc  Sc35  1  0.56048369  0.86054425  0.59689971  1
  N  N36  1  0.19626614  0.21634790  0.37017501  1
  N  N37  1  0.10589285  0.09719084  0.12670018  1
  N  N38  1  0.88900921  0.20886178  0.86991246  1
  N  N39  1  0.80314622  0.08290121  0.61905827  1
  N  N40  1  0.56472229  0.21570509  0.35509984  1
  N  N41  1  0.43443357  0.08763592  0.10572909  1
  N  N42  1  0.19759218  0.21250393  0.88026744  1
  N  N43  1  0.11091485  0.09107173  0.62267952  1
  N  N44  1  0.88853691  0.21029902  0.37913423  1
  N  N45  1  0.80229062  0.09040776  0.13193153  1
  N  N46  1  0.56937764  0.21318335  0.85780416  1
  N  N47  1  0.42288648  0.10505905  0.60548572  1
  N  N48  1  0.22050081  0.53701549  0.36150896  1
  N  N49  1  0.11007461  0.42743102  0.12439464  1
  N  N50  1  0.89440741  0.51743032  0.88402703  1
  N  N51  1  0.77453090  0.43226321  0.62210232  1
  N  N52  1  0.55607304  0.53949191  0.37261430  1
  N  N53  1  0.43504589  0.45036078  0.12143576  1
  N  N54  1  0.22828144  0.51609170  0.86860078  1
  N  N55  1  0.09592655  0.41579684  0.62604377  1
  N  N56  1  0.88678297  0.53754103  0.36600736  1
  N  N57  1  0.77525449  0.42560316  0.12598196  1
  N  N58  1  0.55654336  0.54051420  0.87618931  1
  N  N59  1  0.45142594  0.44137961  0.62783068  1
  N  N60  1  0.22199732  0.87360714  0.36432375  1
  N  N61  1  0.11583904  0.75872828  0.11581103  1
  N  N62  1  0.88105035  0.89609630  0.88879006  1
  N  N63  1  0.80576217  0.74890600  0.61599158  1
  N  N64  1  0.56634940  0.85127162  0.36312101  1
  N  N65  1  0.44509653  0.75936581  0.12457610  1
  N  N66  1  0.23091242  0.88633810  0.88413639  1
  N  N67  1  0.10647570  0.77755767  0.61590585  1
  N  N68  1  0.89142175  0.87048220  0.36143755  1
  N  N69  1  0.77995476  0.75952095  0.11608381  1
  N  N70  1  0.55065043  0.85821600  0.86467988  1
  N  N71  1  0.42974148  0.75338084  0.62409630  1
