# generated using pymatgen
data_Sc2Al7N9
_symmetry_space_group_name_H-M   'P 1'
_cell_length_a   9.90043378
_cell_length_b   9.87776269
_cell_length_c   9.73960968
_cell_angle_alpha   90.00167316
_cell_angle_beta   90.04008204
_cell_angle_gamma   59.70843781
_symmetry_Int_Tables_number   1
_chemical_formula_structural   Sc2Al7N9
_chemical_formula_sum   'Sc8 Al28 N36'
_cell_volume   822.43465263
_cell_formula_units_Z   4
loop_
 _symmetry_equiv_pos_site_id
 _symmetry_equiv_pos_as_xyz
  1  'x, y, z'
loop_
 _atom_site_type_symbol
 _atom_site_label
 _atom_site_symmetry_multiplicity
 _atom_site_fract_x
 _atom_site_fract_y
 _atom_site_fract_z
 _atom_site_occupancy
  Al  Al0  1  0.10438396  0.09675604  0.37965146  1
  Al  Al1  1  0.21007255  0.20671090  0.12736121  1
  Al  Al2  1  0.78851163  0.09871112  0.88289250  1
  Al  Al3  1  0.89304071  0.20651531  0.62783882  1
  Al  Al4  1  0.10493052  0.09770141  0.87963710  1
  Al  Al5  1  0.20558130  0.20809019  0.63117658  1
  Al  Al6  1  0.78775282  0.09514147  0.37571044  1
  Al  Al7  1  0.89456433  0.20599944  0.13096330  1
  Al  Al8  1  0.09858481  0.42522847  0.37454621  1
  Al  Al9  1  0.21786586  0.54257103  0.13637584  1
  Al  Al10  1  0.77792307  0.42432365  0.87876128  1
  Al  Al11  1  0.89149565  0.52828410  0.62875049  1
  Al  Al12  1  0.45179812  0.43294822  0.37499306  1
  Al  Al13  1  0.55495800  0.54407612  0.12719706  1
  Al  Al14  1  0.10861777  0.42330050  0.88261893  1
  Al  Al15  1  0.77537974  0.42925983  0.37885654  1
  Al  Al16  1  0.88651096  0.53820989  0.12978368  1
  Al  Al17  1  0.44224786  0.43531528  0.88289741  1
  Al  Al18  1  0.55602780  0.54131882  0.63178510  1
  Al  Al19  1  0.11042590  0.76747716  0.37911303  1
  Al  Al20  1  0.22094090  0.87430445  0.13037152  1
  Al  Al21  1  0.89534550  0.87739388  0.62262438  1
  Al  Al22  1  0.44102378  0.75286365  0.37596148  1
  Al  Al23  1  0.55791164  0.86312033  0.13748786  1
  Al  Al24  1  0.22180894  0.87767981  0.62731055  1
  Al  Al25  1  0.78979057  0.75230799  0.37799359  1
  Al  Al26  1  0.89482914  0.86974656  0.13476274  1
  Al  Al27  1  0.44339327  0.76032020  0.88258718  1
  Sc  Sc28  1  0.43450275  0.10171210  0.36173207  1
  Sc  Sc29  1  0.56183906  0.20885640  0.11297722  1
  Sc  Sc30  1  0.43599789  0.09532894  0.86789794  1
  Sc  Sc31  1  0.56635126  0.20729475  0.62168613  1
  Sc  Sc32  1  0.21979360  0.53193002  0.60613548  1
  Sc  Sc33  1  0.78173944  0.75855117  0.86883998  1
  Sc  Sc34  1  0.11691789  0.75924459  0.86872150  1
  Sc  Sc35  1  0.55661080  0.86321556  0.60566489  1
  N  N36  1  0.19481721  0.21498734  0.31972854  1
  N  N37  1  0.10908483  0.09331279  0.07521797  1
  N  N38  1  0.88875278  0.20829415  0.82452707  1
  N  N39  1  0.80207271  0.08812590  0.56851058  1
  N  N40  1  0.56801071  0.21354308  0.33707537  1
  N  N41  1  0.43470779  0.08521836  0.09966208  1
  N  N42  1  0.19734162  0.21440153  0.82753564  1
  N  N43  1  0.10912331  0.09394522  0.57484782  1
  N  N44  1  0.88885128  0.20949692  0.32579220  1
  N  N45  1  0.80559737  0.08249679  0.07832619  1
  N  N46  1  0.56775358  0.21516545  0.85229545  1
  N  N47  1  0.42205411  0.10972091  0.59028538  1
  N  N48  1  0.22006674  0.53703457  0.33904139  1
  N  N49  1  0.10880643  0.43015070  0.08076049  1
  N  N50  1  0.89660339  0.51842516  0.82482912  1
  N  N51  1  0.77383507  0.43013654  0.57637635  1
  N  N52  1  0.55854747  0.53904115  0.32116300  1
  N  N53  1  0.43020633  0.45421805  0.07937602  1
  N  N54  1  0.23063515  0.51410151  0.82651348  1
  N  N55  1  0.09623104  0.41343748  0.56703278  1
  N  N56  1  0.88443679  0.53799875  0.32439964  1
  N  N57  1  0.77691649  0.42744713  0.07582836  1
  N  N58  1  0.55384544  0.54104673  0.82956904  1
  N  N59  1  0.45660793  0.43811662  0.56821408  1
  N  N60  1  0.22063574  0.87528887  0.32599941  1
  N  N61  1  0.11227049  0.75992471  0.08943007  1
  N  N62  1  0.88147136  0.89436856  0.81699966  1
  N  N63  1  0.80651777  0.74689802  0.57864891  1
  N  N64  1  0.56609458  0.85088534  0.34138207  1
  N  N65  1  0.44335474  0.76297685  0.08075364  1
  N  N66  1  0.23145610  0.88371610  0.82441928  1
  N  N67  1  0.10862382  0.77726974  0.57884430  1
  N  N68  1  0.89060284  0.87205344  0.33036468  1
  N  N69  1  0.77832110  0.76267631  0.09023061  1
  N  N70  1  0.54938177  0.85895654  0.82324430  1
  N  N71  1  0.43140007  0.75002305  0.56924260  1
