# generated using pymatgen
data_Gd2Al7N9
_symmetry_space_group_name_H-M   'P 1'
_cell_length_a   9.79936095
_cell_length_b   9.87469005
_cell_length_c   10.75296510
_cell_angle_alpha   89.39884392
_cell_angle_beta   89.26603069
_cell_angle_gamma   60.05931278
_symmetry_Int_Tables_number   1
_chemical_formula_structural   Gd2Al7N9
_chemical_formula_sum   'Gd8 Al28 N36'
_cell_volume   901.56876830
_cell_formula_units_Z   4
loop_
 _symmetry_equiv_pos_site_id
 _symmetry_equiv_pos_as_xyz
  1  'x, y, z'
loop_
 _atom_site_type_symbol
 _atom_site_label
 _atom_site_symmetry_multiplicity
 _atom_site_fract_x
 _atom_site_fract_y
 _atom_site_fract_z
 _atom_site_occupancy
  Al  Al0  1  0.10820771  0.10321843  0.30731677  1
  Al  Al1  1  0.21730914  0.20801523  0.07888338  1
  Al  Al2  1  0.76885880  0.09434280  0.90465787  1
  Al  Al3  1  0.43832772  0.09573174  0.31470565  1
  Al  Al4  1  0.54600402  0.21992902  0.12840252  1
  Al  Al5  1  0.12035807  0.08608391  0.82934988  1
  Al  Al6  1  0.89420382  0.20212382  0.06137636  1
  Al  Al7  1  0.44525755  0.09736606  0.90871629  1
  Al  Al8  1  0.11923875  0.42696523  0.29621277  1
  Al  Al9  1  0.22865545  0.54062379  0.06574759  1
  Al  Al10  1  0.77362832  0.41596179  0.87946379  1
  Al  Al11  1  0.88873547  0.55214469  0.65524947  1
  Al  Al12  1  0.44482912  0.43187470  0.37296185  1
  Al  Al13  1  0.56034496  0.52847232  0.13644766  1
  Al  Al14  1  0.12999202  0.41629358  0.82209506  1
  Al  Al15  1  0.21586670  0.54479932  0.54697443  1
  Al  Al16  1  0.78425262  0.44963903  0.38914903  1
  Al  Al17  1  0.45863011  0.41187707  0.89474760  1
  Al  Al18  1  0.54510058  0.53929925  0.62570937  1
  Al  Al19  1  0.11454939  0.74879151  0.31735280  1
  Al  Al20  1  0.21447479  0.87688269  0.07700251  1
  Al  Al21  1  0.77247503  0.78366773  0.82772501  1
  Al  Al22  1  0.89951156  0.85250320  0.54864494  1
  Al  Al23  1  0.43759209  0.76620254  0.29858441  1
  Al  Al24  1  0.55792989  0.87579548  0.08251670  1
  Al  Al25  1  0.22023063  0.86518107  0.55610986  1
  Al  Al26  1  0.78159787  0.75735662  0.29861221  1
  Al  Al27  1  0.89353979  0.87371246  0.07523015  1
  Gd  Gd28  1  0.86952396  0.21768087  0.61731732  1
  Gd  Gd29  1  0.18913034  0.21479988  0.54798405  1
  Gd  Gd30  1  0.78654907  0.09737197  0.34672427  1
  Gd  Gd31  1  0.54088874  0.20488988  0.64220605  1
  Gd  Gd32  1  0.89186597  0.54395703  0.08062963  1
  Gd  Gd33  1  0.10640783  0.76473851  0.79906661  1
  Gd  Gd34  1  0.45207237  0.75092205  0.84405289  1
  Gd  Gd35  1  0.57623620  0.83456073  0.54800617  1
  N  N36  1  0.22164889  0.20678972  0.33331878  1
  N  N37  1  0.10154887  0.09993598  0.12781149  1
  N  N38  1  0.89643630  0.19283632  0.87198002  1
  N  N39  1  0.77961189  0.06871912  0.56137671  1
  N  N40  1  0.52614372  0.22731875  0.30424197  1
  N  N41  1  0.44077205  0.09825955  0.09657975  1
  N  N42  1  0.21808835  0.20543076  0.88828926  1
  N  N43  1  0.12182538  0.05366422  0.65438677  1
  N  N44  1  0.91637615  0.22672010  0.39533665  1
  N  N45  1  0.77678834  0.10053368  0.09302644  1
  N  N46  1  0.55610810  0.19713024  0.86181505  1
  N  N47  1  0.43378651  0.08271129  0.57076244  1
  N  N48  1  0.21827048  0.53403996  0.36580413  1
  N  N49  1  0.14788963  0.41552683  0.12163458  1
  N  N50  1  0.88483480  0.53302434  0.84173018  1
  N  N51  1  0.75286292  0.49733637  0.56749699  1
  N  N52  1  0.56209362  0.53499859  0.31545243  1
  N  N53  1  0.45217446  0.43271091  0.07328309  1
  N  N54  1  0.23341952  0.52000438  0.88584604  1
  N  N55  1  0.11482729  0.44939529  0.64384798  1
  N  N56  1  0.89235729  0.53707121  0.30954577  1
  N  N57  1  0.75703161  0.41926261  0.05714072  1
  N  N58  1  0.57977299  0.48061154  0.80205095  1
  N  N59  1  0.44273450  0.44437657  0.54983589  1
  N  N60  1  0.21990931  0.87739110  0.36535996  1
  N  N61  1  0.11285993  0.75832711  0.13177161  1
  N  N62  1  0.87613331  0.87739285  0.89902063  1
  N  N63  1  0.80518771  0.76785577  0.65463180  1
  N  N64  1  0.55343885  0.87063498  0.33241844  1
  N  N65  1  0.44211933  0.76227600  0.11580311  1
  N  N66  1  0.20583575  0.89096773  0.90544549  1
  N  N67  1  0.11312839  0.75604171  0.58588182  1
  N  N68  1  0.90146825  0.83377132  0.37108056  1
  N  N69  1  0.76621732  0.79616636  0.12805993  1
  N  N70  1  0.57117416  0.88059537  0.89835233  1
  N  N71  1  0.41687197  0.75433070  0.63296916  1
