# generated using pymatgen
data_Gd2Al7N9
_symmetry_space_group_name_H-M   'P 1'
_cell_length_a   9.89924327
_cell_length_b   9.91918434
_cell_length_c   10.52836049
_cell_angle_alpha   88.71956209
_cell_angle_beta   89.68976787
_cell_angle_gamma   59.91309485
_symmetry_Int_Tables_number   1
_chemical_formula_structural   Gd2Al7N9
_chemical_formula_sum   'Gd8 Al28 N36'
_cell_volume   894.27311264
_cell_formula_units_Z   4
loop_
 _symmetry_equiv_pos_site_id
 _symmetry_equiv_pos_as_xyz
  1  'x, y, z'
loop_
 _atom_site_type_symbol
 _atom_site_label
 _atom_site_symmetry_multiplicity
 _atom_site_fract_x
 _atom_site_fract_y
 _atom_site_fract_z
 _atom_site_occupancy
  Al  Al0  1  0.11006533  0.10009209  0.38805576  1
  Al  Al1  1  0.22019785  0.21295646  0.15665305  1
  Al  Al2  1  0.78408081  0.09266404  0.93361329  1
  Al  Al3  1  0.42800447  0.11569713  0.38010687  1
  Al  Al4  1  0.54170564  0.21637441  0.13039542  1
  Al  Al5  1  0.10561180  0.10906815  0.93103506  1
  Al  Al6  1  0.88534607  0.21611999  0.15946437  1
  Al  Al7  1  0.44392807  0.09097813  0.92756487  1
  Al  Al8  1  0.10065312  0.43510339  0.39784357  1
  Al  Al9  1  0.22670639  0.53885050  0.15954583  1
  Al  Al10  1  0.77575668  0.40864988  0.90454213  1
  Al  Al11  1  0.89903508  0.53579844  0.65445747  1
  Al  Al12  1  0.43481163  0.43125630  0.39368667  1
  Al  Al13  1  0.55194275  0.53045037  0.15278570  1
  Al  Al14  1  0.13408981  0.40891518  0.90196984  1
  Al  Al15  1  0.22909330  0.52860425  0.63687496  1
  Al  Al16  1  0.77291408  0.44617875  0.39820323  1
  Al  Al17  1  0.45081089  0.41583932  0.90932663  1
  Al  Al18  1  0.54750853  0.53134584  0.64591225  1
  Al  Al19  1  0.11176841  0.74638054  0.39397554  1
  Al  Al20  1  0.21645148  0.87889100  0.10343233  1
  Al  Al21  1  0.77098742  0.78399185  0.82639286  1
  Al  Al22  1  0.90814485  0.86557041  0.64154268  1
  Al  Al23  1  0.43441702  0.75639055  0.32338490  1
  Al  Al24  1  0.54360077  0.88831353  0.15897058  1
  Al  Al25  1  0.23012260  0.85283513  0.56659225  1
  Al  Al26  1  0.78112567  0.75658474  0.32399901  1
  Al  Al27  1  0.89547129  0.87798113  0.16087330  1
  Gd  Gd28  1  0.89126944  0.21121640  0.65373164  1
  Gd  Gd29  1  0.23488806  0.18948572  0.65125247  1
  Gd  Gd30  1  0.76269208  0.10259267  0.38193387  1
  Gd  Gd31  1  0.56107632  0.19207267  0.68236098  1
  Gd  Gd32  1  0.88543493  0.54638159  0.10887780  1
  Gd  Gd33  1  0.11514634  0.74464689  0.89511372  1
  Gd  Gd34  1  0.45720263  0.75471040  0.86766650  1
  Gd  Gd35  1  0.57370210  0.83870602  0.57768860  1
  N  N36  1  0.21167039  0.21605378  0.34030194  1
  N  N37  1  0.10341251  0.11008503  0.11573009  1
  N  N38  1  0.89738693  0.19546038  0.87307530  1
  N  N39  1  0.79150417  0.07265731  0.59366924  1
  N  N40  1  0.51342465  0.23397371  0.31319034  1
  N  N41  1  0.43299877  0.09482228  0.10761413  1
  N  N42  1  0.22654731  0.19644799  0.87087985  1
  N  N43  1  0.12289421  0.06928781  0.56914386  1
  N  N44  1  0.89391489  0.23205142  0.34255313  1
  N  N45  1  0.78478130  0.09647136  0.12017821  1
  N  N46  1  0.56093759  0.19735103  0.91250923  1
  N  N47  1  0.45794610  0.09585887  0.55478268  1
  N  N48  1  0.21865104  0.53630018  0.34179186  1
  N  N49  1  0.14624614  0.41921270  0.08425404  1
  N  N50  1  0.89482296  0.52620274  0.85692246  1
  N  N51  1  0.75602555  0.47470941  0.58118275  1
  N  N52  1  0.55518349  0.53239578  0.33617146  1
  N  N53  1  0.43126518  0.44896887  0.08888574  1
  N  N54  1  0.25432775  0.48772800  0.81879421  1
  N  N55  1  0.10089932  0.44178968  0.58074019  1
  N  N56  1  0.88731833  0.54086081  0.33812096  1
  N  N57  1  0.75293192  0.41907711  0.08438178  1
  N  N58  1  0.58002485  0.48139595  0.82538717  1
  N  N59  1  0.44175597  0.43397946  0.57403673  1
  N  N60  1  0.22395912  0.86295053  0.37498778  1
  N  N61  1  0.10875535  0.75976577  0.11509991  1
  N  N62  1  0.86946854  0.90047796  0.84645678  1
  N  N63  1  0.81473255  0.74679411  0.65079721  1
  N  N64  1  0.54926221  0.87133546  0.34806414  1
  N  N65  1  0.44264536  0.76407214  0.13643081  1
  N  N66  1  0.21330674  0.89594687  0.92062416  1
  N  N67  1  0.11647417  0.74700241  0.58687725  1
  N  N68  1  0.90356537  0.84797325  0.34355558  1
  N  N69  1  0.75704746  0.80079277  0.13976562  1
  N  N70  1  0.55585716  0.90835491  0.83456045  1
  N  N71  1  0.41938966  0.74815246  0.64860535  1
