# generated using pymatgen
data_Gd2Al7N9
_symmetry_space_group_name_H-M   'P 1'
_cell_length_a   9.84144431
_cell_length_b   9.86460646
_cell_length_c   10.49052251
_cell_angle_alpha   89.51730320
_cell_angle_beta   89.72976048
_cell_angle_gamma   59.96288104
_symmetry_Int_Tables_number   1
_chemical_formula_structural   Gd2Al7N9
_chemical_formula_sum   'Gd8 Al28 N36'
_cell_volume   881.63395459
_cell_formula_units_Z   4
loop_
 _symmetry_equiv_pos_site_id
 _symmetry_equiv_pos_as_xyz
  1  'x, y, z'
loop_
 _atom_site_type_symbol
 _atom_site_label
 _atom_site_symmetry_multiplicity
 _atom_site_fract_x
 _atom_site_fract_y
 _atom_site_fract_z
 _atom_site_occupancy
  Al  Al0  1  0.11238149  0.09907166  0.28814706  1
  Al  Al1  1  0.22409631  0.20553356  0.05146790  1
  Al  Al2  1  0.77549203  0.08887196  0.81685910  1
  Al  Al3  1  0.43761945  0.09764970  0.27911909  1
  Al  Al4  1  0.55095184  0.21122169  0.04099480  1
  Al  Al5  1  0.11433494  0.09340128  0.81523519  1
  Al  Al6  1  0.88607558  0.20660833  0.03961485  1
  Al  Al7  1  0.44517021  0.09628437  0.81872995  1
  Al  Al8  1  0.11675617  0.42373783  0.29569067  1
  Al  Al9  1  0.22922599  0.53288650  0.05657538  1
  Al  Al10  1  0.77239783  0.43418635  0.80536411  1
  Al  Al11  1  0.89233246  0.54768917  0.58184472  1
  Al  Al12  1  0.43781247  0.42744050  0.29538794  1
  Al  Al13  1  0.55492931  0.52721063  0.05804875  1
  Al  Al14  1  0.11687957  0.42589641  0.80760262  1
  Al  Al15  1  0.22031268  0.54725053  0.54380949  1
  Al  Al16  1  0.77915521  0.42613264  0.30354220  1
  Al  Al17  1  0.44419302  0.42739655  0.81083732  1
  Al  Al18  1  0.54296926  0.54958559  0.54595441  1
  Al  Al19  1  0.11139270  0.75294692  0.30510702  1
  Al  Al20  1  0.21704000  0.87489655  0.06348925  1
  Al  Al21  1  0.78039567  0.76695399  0.80679765  1
  Al  Al22  1  0.90060059  0.85873891  0.54658685  1
  Al  Al23  1  0.44331789  0.75854250  0.29048482  1
  Al  Al24  1  0.55687007  0.88002547  0.05795431  1
  Al  Al25  1  0.22193734  0.86595514  0.53270494  1
  Al  Al26  1  0.77941477  0.75965497  0.29405901  1
  Al  Al27  1  0.88767422  0.87593129  0.04854150  1
  Gd  Gd28  1  0.89042570  0.20703120  0.57584360  1
  Gd  Gd29  1  0.21668616  0.20498534  0.55090895  1
  Gd  Gd30  1  0.78001852  0.09542742  0.28860815  1
  Gd  Gd31  1  0.55041219  0.21407110  0.56556632  1
  Gd  Gd32  1  0.88578076  0.53972175  0.06180111  1
  Gd  Gd33  1  0.10993565  0.76125129  0.79098247  1
  Gd  Gd34  1  0.44511239  0.76179946  0.80724958  1
  Gd  Gd35  1  0.57033954  0.86207289  0.54011364  1
  N  N36  1  0.22559302  0.20036672  0.33372898  1
  N  N37  1  0.10450072  0.10060586  0.10524180  1
  N  N38  1  0.88848020  0.21142525  0.84970078  1
  N  N39  1  0.79531687  0.05643655  0.63033129  1
  N  N40  1  0.52775103  0.21336425  0.34797425  1
  N  N41  1  0.44301055  0.09922211  0.09583615  1
  N  N42  1  0.21873023  0.20824182  0.86401925  1
  N  N43  1  0.13395196  0.05183232  0.63533254  1
  N  N44  1  0.90855089  0.21533349  0.36145828  1
  N  N45  1  0.77623291  0.09812085  0.07472969  1
  N  N46  1  0.55283719  0.20977206  0.85503182  1
  N  N47  1  0.44359903  0.08588596  0.64063157  1
  N  N48  1  0.22473348  0.53245654  0.35828848  1
  N  N49  1  0.13827146  0.41416693  0.11535013  1
  N  N50  1  0.88997816  0.53897505  0.84535516  1
  N  N51  1  0.75089331  0.47235087  0.62212675  1
  N  N52  1  0.55415520  0.53303991  0.35838295  1
  N  N53  1  0.44368236  0.42519433  0.11215338  1
  N  N54  1  0.23521605  0.51480215  0.87590883  1
  N  N55  1  0.10871710  0.45221116  0.62290655  1
  N  N56  1  0.88893524  0.53913862  0.34323634  1
  N  N57  1  0.76406823  0.40653948  0.12107681  1
  N  N58  1  0.56907028  0.51016295  0.87731672  1
  N  N59  1  0.42377326  0.46546163  0.62734984  1
  N  N60  1  0.21881390  0.87599403  0.34433391  1
  N  N61  1  0.10845270  0.75868071  0.11466528  1
  N  N62  1  0.87255037  0.87771597  0.87200837  1
  N  N63  1  0.80964791  0.75340631  0.62689709  1
  N  N64  1  0.55103463  0.87450813  0.32522877  1
  N  N65  1  0.44754184  0.75508312  0.10413875  1
  N  N66  1  0.20631695  0.89451509  0.88744983  1
  N  N67  1  0.11522600  0.76073408  0.57283540  1
  N  N68  1  0.89488121  0.84811960  0.36519275  1
  N  N69  1  0.76758318  0.79240655  0.11681437  1
  N  N70  1  0.57126855  0.88231180  0.87349844  1
  N  N71  1  0.42731302  0.75737091  0.58833837  1
