# generated using pymatgen
data_Gd2Al7N9
_symmetry_space_group_name_H-M   'P 1'
_cell_length_a   9.86298930
_cell_length_b   9.90309986
_cell_length_c   10.58723003
_cell_angle_alpha   89.01119832
_cell_angle_beta   89.54732090
_cell_angle_gamma   59.99399177
_symmetry_Int_Tables_number   1
_chemical_formula_structural   Gd2Al7N9
_chemical_formula_sum   'Gd8 Al28 N36'
_cell_volume   895.36800956
_cell_formula_units_Z   4
loop_
 _symmetry_equiv_pos_site_id
 _symmetry_equiv_pos_as_xyz
  1  'x, y, z'
loop_
 _atom_site_type_symbol
 _atom_site_label
 _atom_site_symmetry_multiplicity
 _atom_site_fract_x
 _atom_site_fract_y
 _atom_site_fract_z
 _atom_site_occupancy
  Al  Al0  1  0.11263075  0.10461532  0.29573200  1
  Al  Al1  1  0.22823443  0.20254123  0.05224489  1
  Al  Al2  1  0.76817342  0.09922449  0.88094370  1
  Al  Al3  1  0.44136128  0.09435453  0.28020144  1
  Al  Al4  1  0.54176527  0.21733214  0.05564995  1
  Al  Al5  1  0.11263537  0.08947631  0.81912184  1
  Al  Al6  1  0.89685669  0.20115672  0.04792742  1
  Al  Al7  1  0.44589468  0.09496735  0.81775733  1
  Al  Al8  1  0.12445313  0.41942258  0.29092365  1
  Al  Al9  1  0.23489545  0.53315955  0.05140524  1
  Al  Al10  1  0.76585240  0.42793246  0.87304923  1
  Al  Al11  1  0.88885747  0.54779559  0.64166965  1
  Al  Al12  1  0.43817296  0.42700936  0.29314732  1
  Al  Al13  1  0.55890133  0.53520933  0.11579464  1
  Al  Al14  1  0.12536166  0.41886387  0.81106251  1
  Al  Al15  1  0.21692773  0.54212457  0.54264660  1
  Al  Al16  1  0.78621549  0.44759645  0.37484566  1
  Al  Al17  1  0.44288721  0.42393368  0.80249636  1
  Al  Al18  1  0.54092275  0.54919590  0.58866646  1
  Al  Al19  1  0.11690094  0.74565906  0.30286636  1
  Al  Al20  1  0.21798900  0.87451422  0.06715306  1
  Al  Al21  1  0.77470224  0.78071321  0.81413646  1
  Al  Al22  1  0.90263861  0.84946075  0.53238940  1
  Al  Al23  1  0.44122573  0.76547939  0.29291829  1
  Al  Al24  1  0.55653877  0.88222376  0.05756681  1
  Al  Al25  1  0.21412188  0.86497443  0.53338305  1
  Al  Al26  1  0.78126410  0.75874593  0.28645875  1
  Al  Al27  1  0.89302871  0.87254192  0.05823658  1
  Gd  Gd28  1  0.87056338  0.21319783  0.60078488  1
  Gd  Gd29  1  0.20473920  0.19897009  0.55546722  1
  Gd  Gd30  1  0.79346468  0.09537377  0.31346299  1
  Gd  Gd31  1  0.53267355  0.20767248  0.54873885  1
  Gd  Gd32  1  0.89619557  0.54011547  0.07422713  1
  Gd  Gd33  1  0.10399606  0.76698462  0.78817132  1
  Gd  Gd34  1  0.43730532  0.77418201  0.80982079  1
  Gd  Gd35  1  0.57979443  0.84451275  0.54179611  1
  N  N36  1  0.23198773  0.19905933  0.33938240  1
  N  N37  1  0.10638534  0.10114036  0.11287186  1
  N  N38  1  0.88969615  0.20302362  0.85468940  1
  N  N39  1  0.78369918  0.06366248  0.54648608  1
  N  N40  1  0.53207085  0.21305165  0.33282687  1
  N  N41  1  0.44284788  0.09674498  0.09980476  1
  N  N42  1  0.21918332  0.20349272  0.86676131  1
  N  N43  1  0.12050773  0.04531474  0.64243147  1
  N  N44  1  0.91695255  0.22561196  0.37804973  1
  N  N45  1  0.77738672  0.10029028  0.07512425  1
  N  N46  1  0.54761594  0.21169618  0.86515614  1
  N  N47  1  0.43930817  0.07121603  0.64212322  1
  N  N48  1  0.22879432  0.52775539  0.35851198  1
  N  N49  1  0.15322910  0.40729614  0.11109102  1
  N  N50  1  0.88658708  0.53466831  0.83313154  1
  N  N51  1  0.75290142  0.49237703  0.55630433  1
  N  N52  1  0.56007912  0.53550242  0.31568804  1
  N  N53  1  0.44403668  0.43014140  0.11024628  1
  N  N54  1  0.23447317  0.51786246  0.87196020  1
  N  N55  1  0.11057394  0.44434586  0.62881053  1
  N  N56  1  0.89692931  0.53725270  0.30255512  1
  N  N57  1  0.76169234  0.41597221  0.05425472  1
  N  N58  1  0.56488066  0.51677525  0.81767064  1
  N  N59  1  0.42245225  0.45181577  0.61800307  1
  N  N60  1  0.21660623  0.87806214  0.34654879  1
  N  N61  1  0.11368669  0.75435162  0.11565319  1
  N  N62  1  0.87242258  0.88298642  0.87984236  1
  N  N63  1  0.81349387  0.75980352  0.63880360  1
  N  N64  1  0.55580131  0.87281297  0.32903324  1
  N  N65  1  0.44485153  0.76434635  0.10621261  1
  N  N66  1  0.20047538  0.89432371  0.89397250  1
  N  N67  1  0.11332991  0.75416316  0.57166680  1
  N  N68  1  0.90483325  0.83385591  0.35331777  1
  N  N69  1  0.76474925  0.79576962  0.11184484  1
  N  N70  1  0.57038976  0.88570661  0.87781685  1
  N  N71  1  0.41835989  0.75895267  0.59059644  1
