# generated using pymatgen
data_Gd2Al7N9
_symmetry_space_group_name_H-M   'P 1'
_cell_length_a   9.85371572
_cell_length_b   9.89512266
_cell_length_c   10.62508253
_cell_angle_alpha   88.98070293
_cell_angle_beta   89.59465586
_cell_angle_gamma   59.99741228
_symmetry_Int_Tables_number   1
_chemical_formula_structural   Gd2Al7N9
_chemical_formula_sum   'Gd8 Al28 N36'
_cell_volume   897.02209716
_cell_formula_units_Z   4
loop_
 _symmetry_equiv_pos_site_id
 _symmetry_equiv_pos_as_xyz
  1  'x, y, z'
loop_
 _atom_site_type_symbol
 _atom_site_label
 _atom_site_symmetry_multiplicity
 _atom_site_fract_x
 _atom_site_fract_y
 _atom_site_fract_z
 _atom_site_occupancy
  Al  Al0  1  0.11217685  0.10557305  0.29625087  1
  Al  Al1  1  0.22780036  0.20334222  0.05200556  1
  Al  Al2  1  0.76878171  0.09860455  0.88104425  1
  Al  Al3  1  0.44114194  0.09455700  0.28012787  1
  Al  Al4  1  0.54191924  0.21762874  0.05583993  1
  Al  Al5  1  0.11210128  0.09018660  0.81803919  1
  Al  Al6  1  0.89564211  0.20249327  0.04656488  1
  Al  Al7  1  0.44595239  0.09565236  0.81660061  1
  Al  Al8  1  0.12369759  0.41985892  0.29047925  1
  Al  Al9  1  0.23451957  0.53390606  0.05140619  1
  Al  Al10  1  0.76827864  0.42652171  0.86964626  1
  Al  Al11  1  0.88884279  0.54796559  0.64067096  1
  Al  Al12  1  0.43801645  0.42717454  0.29155795  1
  Al  Al13  1  0.56107567  0.53417232  0.12099107  1
  Al  Al14  1  0.12495908  0.41967451  0.81057548  1
  Al  Al15  1  0.21762394  0.54174444  0.54228702  1
  Al  Al16  1  0.78276995  0.44985807  0.37582861  1
  Al  Al17  1  0.44169090  0.42055293  0.80150548  1
  Al  Al18  1  0.54600726  0.54482819  0.61826918  1
  Al  Al19  1  0.11738037  0.74562956  0.30351907  1
  Al  Al20  1  0.21581432  0.87651183  0.06728207  1
  Al  Al21  1  0.77504717  0.78098901  0.81307434  1
  Al  Al22  1  0.90186257  0.84962145  0.53146907  1
  Al  Al23  1  0.44142295  0.76636557  0.28987138  1
  Al  Al24  1  0.55680766  0.88397659  0.05759605  1
  Al  Al25  1  0.21747591  0.86231245  0.53552687  1
  Al  Al26  1  0.78108805  0.75873332  0.28651377  1
  Al  Al27  1  0.89356555  0.87234524  0.05799411  1
  Gd  Gd28  1  0.87078833  0.21304437  0.59876200  1
  Gd  Gd29  1  0.20486630  0.19918846  0.55542402  1
  Gd  Gd30  1  0.79390969  0.09514081  0.31283148  1
  Gd  Gd31  1  0.53229285  0.20731888  0.54641631  1
  Gd  Gd32  1  0.89455859  0.54042024  0.07425750  1
  Gd  Gd33  1  0.10417062  0.76763432  0.78611343  1
  Gd  Gd34  1  0.43777425  0.77357172  0.81983396  1
  Gd  Gd35  1  0.57763024  0.84071365  0.54301726  1
  N  N36  1  0.23188649  0.19968477  0.33956413  1
  N  N37  1  0.10486443  0.10287698  0.11346442  1
  N  N38  1  0.89025183  0.20236950  0.85420447  1
  N  N39  1  0.78351469  0.06377822  0.54520180  1
  N  N40  1  0.53251189  0.21331468  0.33109334  1
  N  N41  1  0.44232842  0.09760758  0.10030606  1
  N  N42  1  0.21928802  0.20387137  0.86672858  1
  N  N43  1  0.12046511  0.04562503  0.64211316  1
  N  N44  1  0.91589289  0.22672127  0.37784667  1
  N  N45  1  0.77764673  0.10035223  0.07459434  1
  N  N46  1  0.54804493  0.21135555  0.86643753  1
  N  N47  1  0.44002897  0.07067608  0.64178400  1
  N  N48  1  0.22928837  0.52746044  0.35815415  1
  N  N49  1  0.15200405  0.40836124  0.11077649  1
  N  N50  1  0.88681771  0.53530800  0.83237279  1
  N  N51  1  0.75102985  0.49373473  0.55686069  1
  N  N52  1  0.56293374  0.53552168  0.30603288  1
  N  N53  1  0.44395876  0.43074013  0.10875173  1
  N  N54  1  0.23462580  0.51889185  0.87230026  1
  N  N55  1  0.11027597  0.44455928  0.62882539  1
  N  N56  1  0.89588962  0.53696608  0.30194036  1
  N  N57  1  0.75790095  0.41818956  0.04844879  1
  N  N58  1  0.57261518  0.50998883  0.80062865  1
  N  N59  1  0.42053508  0.44943926  0.61937314  1
  N  N60  1  0.21898972  0.87736238  0.34773380  1
  N  N61  1  0.11375554  0.75503605  0.11647227  1
  N  N62  1  0.87336326  0.88216283  0.87985882  1
  N  N63  1  0.81218207  0.76064658  0.63815814  1
  N  N64  1  0.55542627  0.87257595  0.32942337  1
  N  N65  1  0.44420037  0.76599311  0.10270012  1
  N  N66  1  0.19767778  0.89607807  0.89458792  1
  N  N67  1  0.11293848  0.75411706  0.57046256  1
  N  N68  1  0.90503823  0.83355061  0.35304163  1
  N  N69  1  0.76485689  0.79605466  0.11217487  1
  N  N70  1  0.57111830  0.88729761  0.87818521  1
  N  N71  1  0.41781269  0.75635526  0.60231206  1
