# generated using pymatgen
data_Gd2Al7N9
_symmetry_space_group_name_H-M   'P 1'
_cell_length_a   9.77956290
_cell_length_b   9.89671958
_cell_length_c   10.74838212
_cell_angle_alpha   89.34520021
_cell_angle_beta   89.26345411
_cell_angle_gamma   59.90508095
_symmetry_Int_Tables_number   1
_chemical_formula_structural   Gd2Al7N9
_chemical_formula_sum   'Gd8 Al28 N36'
_cell_volume   899.96406199
_cell_formula_units_Z   4
loop_
 _symmetry_equiv_pos_site_id
 _symmetry_equiv_pos_as_xyz
  1  'x, y, z'
loop_
 _atom_site_type_symbol
 _atom_site_label
 _atom_site_symmetry_multiplicity
 _atom_site_fract_x
 _atom_site_fract_y
 _atom_site_fract_z
 _atom_site_occupancy
  Al  Al0  1  0.10850918  0.09687406  0.32910835  1
  Al  Al1  1  0.22936263  0.20314176  0.14739955  1
  Al  Al2  1  0.76679234  0.09487330  0.92353756  1
  Al  Al3  1  0.44120492  0.09923188  0.37891799  1
  Al  Al4  1  0.54457090  0.21582908  0.14822575  1
  Al  Al5  1  0.12655259  0.08700784  0.84404957  1
  Al  Al6  1  0.89829722  0.19996042  0.07847913  1
  Al  Al7  1  0.43904222  0.09632233  0.92341585  1
  Al  Al8  1  0.11708361  0.43558015  0.31615836  1
  Al  Al9  1  0.23160122  0.54010453  0.08275655  1
  Al  Al10  1  0.77823010  0.41341421  0.89775099  1
  Al  Al11  1  0.88818097  0.55149951  0.67142680  1
  Al  Al12  1  0.44667991  0.42893404  0.39472002  1
  Al  Al13  1  0.56506827  0.52384468  0.15660582  1
  Al  Al14  1  0.13399224  0.41492292  0.83421944  1
  Al  Al15  1  0.21405622  0.54604561  0.56649626  1
  Al  Al16  1  0.78602149  0.44859468  0.41159670  1
  Al  Al17  1  0.46156167  0.40906927  0.91281126  1
  Al  Al18  1  0.54140615  0.53743606  0.65023120  1
  Al  Al19  1  0.11624105  0.74959567  0.33442306  1
  Al  Al20  1  0.21477124  0.87859980  0.09590267  1
  Al  Al21  1  0.77089175  0.79054696  0.83511415  1
  Al  Al22  1  0.89829491  0.85419723  0.56528251  1
  Al  Al23  1  0.43708234  0.75885488  0.32227189  1
  Al  Al24  1  0.55048464  0.88465053  0.15330258  1
  Al  Al25  1  0.21745727  0.86457013  0.57740008  1
  Al  Al26  1  0.78936792  0.75359069  0.32009905  1
  Al  Al27  1  0.89299375  0.87449492  0.09327757  1
  Gd  Gd28  1  0.85770322  0.21832350  0.64585468  1
  Gd  Gd29  1  0.16921507  0.22079105  0.56181142  1
  Gd  Gd30  1  0.78771408  0.10111655  0.36570227  1
  Gd  Gd31  1  0.52768058  0.19837483  0.66135720  1
  Gd  Gd32  1  0.89609573  0.54627689  0.08956214  1
  Gd  Gd33  1  0.11175916  0.76761215  0.81955856  1
  Gd  Gd34  1  0.46151928  0.74602806  0.87668976  1
  Gd  Gd35  1  0.56873641  0.83203974  0.57890387  1
  N  N36  1  0.22332725  0.20557714  0.33647558  1
  N  N37  1  0.10275375  0.09690165  0.15115290  1
  N  N38  1  0.89931620  0.19046232  0.89117459  1
  N  N39  1  0.76961586  0.07117089  0.58082265  1
  N  N40  1  0.52622962  0.22537894  0.32506601  1
  N  N41  1  0.44427028  0.09438625  0.10392542  1
  N  N42  1  0.22354754  0.20578977  0.87710894  1
  N  N43  1  0.11508886  0.05436103  0.66969145  1
  N  N44  1  0.92275349  0.22543250  0.42203220  1
  N  N45  1  0.77783504  0.10043146  0.11245368  1
  N  N46  1  0.55553226  0.19754217  0.87935726  1
  N  N47  1  0.42430764  0.08876828  0.55104770  1
  N  N48  1  0.22000263  0.53635204  0.38567271  1
  N  N49  1  0.14974351  0.41835038  0.14277836  1
  N  N50  1  0.88444517  0.53446120  0.85702644  1
  N  N51  1  0.74888592  0.49815706  0.58737725  1
  N  N52  1  0.56490044  0.53017151  0.33640090  1
  N  N53  1  0.45538359  0.43028409  0.09262051  1
  N  N54  1  0.23450429  0.52084853  0.90273782  1
  N  N55  1  0.11370104  0.44877112  0.65548463  1
  N  N56  1  0.89422340  0.53654382  0.33304890  1
  N  N57  1  0.76261033  0.41895443  0.07674632  1
  N  N58  1  0.58546730  0.47535851  0.82164119  1
  N  N59  1  0.44363849  0.43826941  0.57268106  1
  N  N60  1  0.22172933  0.87449386  0.38710505  1
  N  N61  1  0.11458720  0.75816535  0.14930982  1
  N  N62  1  0.87587696  0.87681280  0.91647403  1
  N  N63  1  0.80762110  0.76413593  0.66311821  1
  N  N64  1  0.55406528  0.86859552  0.34461275  1
  N  N65  1  0.44375680  0.76123808  0.13836975  1
  N  N66  1  0.20952291  0.89471633  0.92525267  1
  N  N67  1  0.11085947  0.75647038  0.60609636  1
  N  N68  1  0.90317641  0.83838710  0.38743451  1
  N  N69  1  0.76733864  0.79524477  0.14798668  1
  N  N70  1  0.55935969  0.89677898  0.86063998  1
  N  N71  1  0.41052050  0.75101565  0.65953254  1
