# generated using pymatgen
data_Gd2Al7N9
_symmetry_space_group_name_H-M   'P 1'
_cell_length_a   9.77813938
_cell_length_b   9.87208071
_cell_length_c   10.77441010
_cell_angle_alpha   89.32120863
_cell_angle_beta   89.21703529
_cell_angle_gamma   59.92586944
_symmetry_Int_Tables_number   1
_chemical_formula_structural   Gd2Al7N9
_chemical_formula_sum   'Gd8 Al28 N36'
_cell_volume   899.94580402
_cell_formula_units_Z   4
loop_
 _symmetry_equiv_pos_site_id
 _symmetry_equiv_pos_as_xyz
  1  'x, y, z'
loop_
 _atom_site_type_symbol
 _atom_site_label
 _atom_site_symmetry_multiplicity
 _atom_site_fract_x
 _atom_site_fract_y
 _atom_site_fract_z
 _atom_site_occupancy
  Al  Al0  1  0.11165965  0.10148206  0.31369558  1
  Al  Al1  1  0.22231880  0.20632985  0.09556898  1
  Al  Al2  1  0.76671069  0.09387138  0.91121404  1
  Al  Al3  1  0.44196278  0.09519195  0.36584367  1
  Al  Al4  1  0.54252002  0.21588191  0.14192194  1
  Al  Al5  1  0.12206378  0.08666183  0.83638008  1
  Al  Al6  1  0.89467745  0.20019762  0.06710632  1
  Al  Al7  1  0.44368073  0.09902488  0.91467429  1
  Al  Al8  1  0.12194996  0.42763940  0.30163477  1
  Al  Al9  1  0.23034090  0.54047950  0.07126787  1
  Al  Al10  1  0.77617990  0.41458485  0.88750776  1
  Al  Al11  1  0.88759164  0.55396907  0.66355241  1
  Al  Al12  1  0.44680371  0.43124699  0.38174190  1
  Al  Al13  1  0.56199470  0.52492818  0.14398702  1
  Al  Al14  1  0.13048741  0.41603195  0.82906597  1
  Al  Al15  1  0.21428518  0.54647964  0.55404039  1
  Al  Al16  1  0.78608481  0.44990886  0.39801465  1
  Al  Al17  1  0.46131326  0.40691778  0.90067931  1
  Al  Al18  1  0.54268551  0.53954306  0.63703890  1
  Al  Al19  1  0.11581955  0.74900009  0.32413666  1
  Al  Al20  1  0.21434486  0.87739622  0.08475164  1
  Al  Al21  1  0.77265939  0.78375390  0.83486330  1
  Al  Al22  1  0.89697549  0.85454376  0.55505098  1
  Al  Al23  1  0.44086776  0.76501596  0.30544617  1
  Al  Al24  1  0.55739153  0.87961731  0.08959285  1
  Al  Al25  1  0.21798014  0.86702186  0.56431019  1
  Al  Al26  1  0.78169763  0.75796457  0.30715844  1
  Al  Al27  1  0.89353442  0.87370141  0.08268135  1
  Gd  Gd28  1  0.86211536  0.21958006  0.63122672  1
  Gd  Gd29  1  0.17147995  0.22310498  0.54844236  1
  Gd  Gd30  1  0.79145400  0.09919478  0.35305545  1
  Gd  Gd31  1  0.53272307  0.20264508  0.64245615  1
  Gd  Gd32  1  0.89192844  0.54423252  0.08871935  1
  Gd  Gd33  1  0.10832053  0.76567987  0.80631192  1
  Gd  Gd34  1  0.45476208  0.74512976  0.85985209  1
  Gd  Gd35  1  0.57301906  0.82944356  0.55949620  1
  N  N36  1  0.22395201  0.20664807  0.33306003  1
  N  N37  1  0.10119283  0.09911382  0.13570043  1
  N  N38  1  0.89685690  0.19122897  0.87922388  1
  N  N39  1  0.77498572  0.07151545  0.56776796  1
  N  N40  1  0.52865318  0.22433463  0.31747624  1
  N  N41  1  0.44343771  0.09989399  0.09281574  1
  N  N42  1  0.21740296  0.20640171  0.89180990  1
  N  N43  1  0.11912245  0.05684275  0.66118120  1
  N  N44  1  0.92325574  0.22657249  0.40911266  1
  N  N45  1  0.77531516  0.10056895  0.10016814  1
  N  N46  1  0.55669333  0.19475781  0.85932606  1
  N  N47  1  0.42703399  0.08845664  0.54426783  1
  N  N48  1  0.21978140  0.53439747  0.37357001  1
  N  N49  1  0.14829432  0.41760408  0.12778901  1
  N  N50  1  0.88485451  0.53398175  0.84863698  1
  N  N51  1  0.75013496  0.50076110  0.57561029  1
  N  N52  1  0.56460675  0.53224487  0.32258755  1
  N  N53  1  0.45462188  0.42818523  0.08025727  1
  N  N54  1  0.23512946  0.51988795  0.89168906  1
  N  N55  1  0.11454693  0.44921925  0.64990466  1
  N  N56  1  0.89489662  0.53658113  0.31795799  1
  N  N57  1  0.75882545  0.41807267  0.06427034  1
  N  N58  1  0.58363387  0.47630033  0.80968052  1
  N  N59  1  0.44264284  0.44434291  0.55896074  1
  N  N60  1  0.22217235  0.87642232  0.37333370  1
  N  N61  1  0.11412919  0.75792472  0.13904977  1
  N  N62  1  0.87704522  0.87624702  0.90650010  1
  N  N63  1  0.80183803  0.77054438  0.66116832  1
  N  N64  1  0.55743707  0.86493087  0.34516667  1
  N  N65  1  0.44391061  0.76155457  0.12283456  1
  N  N66  1  0.20598453  0.89201725  0.91362950  1
  N  N67  1  0.11078608  0.75782193  0.59333206  1
  N  N68  1  0.90188421  0.83598169  0.37778836  1
  N  N69  1  0.76600558  0.79643909  0.13621905  1
  N  N70  1  0.57018166  0.88057906  0.90179813  1
  N  N71  1  0.41185743  0.75484089  0.64755476  1
