# generated using pymatgen
data_Gd2Al7N9
_symmetry_space_group_name_H-M   'P 1'
_cell_length_a   9.77826612
_cell_length_b   9.87155832
_cell_length_c   10.77490549
_cell_angle_alpha   89.32463304
_cell_angle_beta   89.22106453
_cell_angle_gamma   59.92961920
_symmetry_Int_Tables_number   1
_chemical_formula_structural   Gd2Al7N9
_chemical_formula_sum   'Gd8 Al28 N36'
_cell_volume   899.98633559
_cell_formula_units_Z   4
loop_
 _symmetry_equiv_pos_site_id
 _symmetry_equiv_pos_as_xyz
  1  'x, y, z'
loop_
 _atom_site_type_symbol
 _atom_site_label
 _atom_site_symmetry_multiplicity
 _atom_site_fract_x
 _atom_site_fract_y
 _atom_site_fract_z
 _atom_site_occupancy
  Al  Al0  1  0.11170085  0.10167235  0.31257486  1
  Al  Al1  1  0.22213090  0.20644308  0.09345075  1
  Al  Al2  1  0.76674121  0.09386192  0.91010774  1
  Al  Al3  1  0.44194618  0.09524106  0.36488807  1
  Al  Al4  1  0.54241485  0.21587912  0.14081392  1
  Al  Al5  1  0.12197976  0.08659613  0.83527898  1
  Al  Al6  1  0.89460800  0.20026736  0.06602145  1
  Al  Al7  1  0.44388678  0.09887343  0.91344434  1
  Al  Al8  1  0.12202835  0.42746992  0.30051712  1
  Al  Al9  1  0.23029201  0.54047231  0.07018482  1
  Al  Al10  1  0.77616038  0.41460193  0.88637957  1
  Al  Al11  1  0.88763738  0.55398295  0.66241898  1
  Al  Al12  1  0.44679125  0.43127137  0.38058675  1
  Al  Al13  1  0.56192513  0.52498364  0.14288326  1
  Al  Al14  1  0.13041853  0.41612078  0.82797535  1
  Al  Al15  1  0.21432270  0.54646872  0.55287849  1
  Al  Al16  1  0.78607481  0.44996936  0.39687128  1
  Al  Al17  1  0.46130019  0.40691634  0.89959124  1
  Al  Al18  1  0.54270149  0.53955555  0.63589067  1
  Al  Al19  1  0.11580777  0.74901697  0.32303330  1
  Al  Al20  1  0.21429796  0.87744115  0.08367223  1
  Al  Al21  1  0.77270684  0.78367666  0.83376483  1
  Al  Al22  1  0.89702327  0.85455824  0.55392023  1
  Al  Al23  1  0.44082129  0.76508778  0.30436236  1
  Al  Al24  1  0.55729507  0.87967103  0.08848667  1
  Al  Al25  1  0.21800678  0.86700103  0.56318170  1
  Al  Al26  1  0.78165173  0.75803191  0.30607316  1
  Al  Al27  1  0.89349174  0.87372353  0.08158814  1
  Gd  Gd28  1  0.86222748  0.21962602  0.62997945  1
  Gd  Gd29  1  0.17172443  0.22299949  0.54758121  1
  Gd  Gd30  1  0.79146551  0.09921319  0.35188848  1
  Gd  Gd31  1  0.53292741  0.20269324  0.64135228  1
  Gd  Gd32  1  0.89181897  0.54429347  0.08774874  1
  Gd  Gd33  1  0.10826434  0.76566386  0.80516518  1
  Gd  Gd34  1  0.45470386  0.74509113  0.85872764  1
  Gd  Gd35  1  0.57310887  0.82939158  0.55844269  1
  N  N36  1  0.22392196  0.20674435  0.33249468  1
  N  N37  1  0.10119394  0.09926706  0.13453591  1
  N  N38  1  0.89684655  0.19124643  0.87813507  1
  N  N39  1  0.77511507  0.07152444  0.56662175  1
  N  N40  1  0.52864617  0.22432339  0.31636054  1
  N  N41  1  0.44330630  0.09994885  0.09157490  1
  N  N42  1  0.21739154  0.20638257  0.89077073  1
  N  N43  1  0.11914518  0.05675113  0.66013092  1
  N  N44  1  0.92318036  0.22664869  0.40793829  1
  N  N45  1  0.77527521  0.10060227  0.09905834  1
  N  N46  1  0.55674007  0.19474436  0.85819698  1
  N  N47  1  0.42725455  0.08839699  0.54336478  1
  N  N48  1  0.21977795  0.53439741  0.37240333  1
  N  N49  1  0.14826307  0.41749589  0.12662329  1
  N  N50  1  0.88488952  0.53395044  0.84751765  1
  N  N51  1  0.75011956  0.50085825  0.57446945  1
  N  N52  1  0.56458157  0.53230002  0.32146145  1
  N  N53  1  0.45457229  0.42819696  0.07916115  1
  N  N54  1  0.23512319  0.51988885  0.89060718  1
  N  N55  1  0.11457499  0.44928192  0.64885143  1
  N  N56  1  0.89489272  0.53662615  0.31679368  1
  N  N57  1  0.75872793  0.41814242  0.06312557  1
  N  N58  1  0.58362713  0.47626963  0.80853385  1
  N  N59  1  0.44265351  0.44437798  0.55778700  1
  N  N60  1  0.22213588  0.87649877  0.37220596  1
  N  N61  1  0.11407592  0.75795098  0.13795691  1
  N  N62  1  0.87703555  0.87623295  0.90541929  1
  N  N63  1  0.80193334  0.77055301  0.66008414  1
  N  N64  1  0.55740753  0.86498807  0.34413389  1
  N  N65  1  0.44384768  0.76161428  0.12174841  1
  N  N66  1  0.20593926  0.89199069  0.91254476  1
  N  N67  1  0.11082471  0.75779836  0.59218509  1
  N  N68  1  0.90188301  0.83600344  0.37668304  1
  N  N69  1  0.76589302  0.79654664  0.13514005  1
  N  N70  1  0.57022157  0.88046823  0.90064837  1
  N  N71  1  0.41187075  0.75484658  0.64644413  1
