# generated using pymatgen
data_Gd2Al7N9
_symmetry_space_group_name_H-M   'P 1'
_cell_length_a   9.84969196
_cell_length_b   9.89429740
_cell_length_c   10.54894998
_cell_angle_alpha   88.91924905
_cell_angle_beta   89.66557092
_cell_angle_gamma   60.05870565
_symmetry_Int_Tables_number   1
_chemical_formula_structural   Gd2Al7N9
_chemical_formula_sum   'Gd8 Al28 N36'
_cell_volume   890.68289639
_cell_formula_units_Z   4
loop_
 _symmetry_equiv_pos_site_id
 _symmetry_equiv_pos_as_xyz
  1  'x, y, z'
loop_
 _atom_site_type_symbol
 _atom_site_label
 _atom_site_symmetry_multiplicity
 _atom_site_fract_x
 _atom_site_fract_y
 _atom_site_fract_z
 _atom_site_occupancy
  Al  Al0  1  0.11484153  0.09944369  0.29283436  1
  Al  Al1  1  0.22699291  0.20215559  0.05223283  1
  Al  Al2  1  0.76652886  0.10336005  0.88124058  1
  Al  Al3  1  0.43980237  0.09334830  0.27982664  1
  Al  Al4  1  0.54047936  0.21746161  0.05717069  1
  Al  Al5  1  0.11172573  0.09156585  0.81873898  1
  Al  Al6  1  0.89191911  0.20861366  0.04954675  1
  Al  Al7  1  0.44479621  0.09749977  0.81842408  1
  Al  Al8  1  0.12302985  0.41919137  0.29235908  1
  Al  Al9  1  0.23240077  0.53359061  0.05448628  1
  Al  Al10  1  0.76531434  0.43429238  0.81893305  1
  Al  Al11  1  0.89196321  0.54884690  0.64676682  1
  Al  Al12  1  0.44141686  0.42851361  0.29322367  1
  Al  Al13  1  0.55225470  0.53356109  0.05483676  1
  Al  Al14  1  0.12804656  0.42032361  0.81384750  1
  Al  Al15  1  0.21976876  0.54519730  0.54644499  1
  Al  Al16  1  0.78460216  0.42774832  0.30603710  1
  Al  Al17  1  0.44266108  0.42937252  0.80886561  1
  Al  Al18  1  0.54402263  0.55032395  0.54811426  1
  Al  Al19  1  0.11787813  0.74421299  0.30238961  1
  Al  Al20  1  0.21967285  0.87308701  0.06584571  1
  Al  Al21  1  0.77335091  0.78365294  0.81433985  1
  Al  Al22  1  0.90429983  0.84825363  0.53177678  1
  Al  Al23  1  0.44574306  0.75787525  0.29324266  1
  Al  Al24  1  0.55495805  0.87973220  0.05759691  1
  Al  Al25  1  0.21874970  0.86466195  0.53135671  1
  Al  Al26  1  0.78212935  0.75403041  0.28579594  1
  Al  Al27  1  0.89191510  0.87257743  0.05665242  1
  Gd  Gd28  1  0.87681343  0.20787033  0.58524329  1
  Gd  Gd29  1  0.20485556  0.20357684  0.55642935  1
  Gd  Gd30  1  0.78963824  0.08843309  0.30891978  1
  Gd  Gd31  1  0.53078697  0.21884673  0.54973760  1
  Gd  Gd32  1  0.89386711  0.53891479  0.06663221  1
  Gd  Gd33  1  0.10305820  0.76784788  0.78937920  1
  Gd  Gd34  1  0.43883240  0.77059054  0.80039963  1
  Gd  Gd35  1  0.57927551  0.85722717  0.54047085  1
  N  N36  1  0.23075781  0.19697687  0.33993230  1
  N  N37  1  0.10712732  0.09930708  0.10985264  1
  N  N38  1  0.88603215  0.21109495  0.85637982  1
  N  N39  1  0.77919452  0.06172022  0.54386857  1
  N  N40  1  0.52938254  0.21342664  0.33216770  1
  N  N41  1  0.44207117  0.09543630  0.09873217  1
  N  N42  1  0.21871203  0.20519335  0.86624403  1
  N  N43  1  0.12428978  0.04523983  0.64108325  1
  N  N44  1  0.91417271  0.22088829  0.36841208  1
  N  N45  1  0.77631710  0.10044303  0.07333818  1
  N  N46  1  0.54603178  0.21454850  0.86564620  1
  N  N47  1  0.43889637  0.08027833  0.64130276  1
  N  N48  1  0.23137632  0.52621888  0.36083303  1
  N  N49  1  0.15083132  0.40710064  0.11239648  1
  N  N50  1  0.89124960  0.53955888  0.83898684  1
  N  N51  1  0.74780884  0.47610294  0.63083523  1
  N  N52  1  0.55950598  0.53130965  0.35923791  1
  N  N53  1  0.44308810  0.43192760  0.11254251  1
  N  N54  1  0.23444574  0.51993809  0.87514213  1
  N  N55  1  0.11270280  0.44790686  0.63137336  1
  N  N56  1  0.89616733  0.53486053  0.30726655  1
  N  N57  1  0.76428878  0.41128963  0.10667750  1
  N  N58  1  0.55801261  0.52056120  0.87535817  1
  N  N59  1  0.42683397  0.46326004  0.62685815  1
  N  N60  1  0.21829975  0.87457506  0.34412958  1
  N  N61  1  0.11245515  0.75475422  0.11443782  1
  N  N62  1  0.87030625  0.88722735  0.87789157  1
  N  N63  1  0.81412441  0.75966104  0.63814314  1
  N  N64  1  0.55657875  0.87071187  0.32636343  1
  N  N65  1  0.44720025  0.75662541  0.10718901  1
  N  N66  1  0.20530215  0.89359549  0.89088584  1
  N  N67  1  0.11463050  0.75733534  0.57262740  1
  N  N68  1  0.90664093  0.82860290  0.35318647  1
  N  N69  1  0.76482221  0.79399366  0.11024319  1
  N  N70  1  0.56707153  0.88541956  0.87529976  1
  N  N71  1  0.42623111  0.75987646  0.58245425  1
