# generated using pymatgen
data_Gd2Al7N9
_symmetry_space_group_name_H-M   'P 1'
_cell_length_a   9.83070695
_cell_length_b   9.97453067
_cell_length_c   10.58597271
_cell_angle_alpha   89.35190782
_cell_angle_beta   89.39862135
_cell_angle_gamma   59.79325337
_symmetry_Int_Tables_number   1
_chemical_formula_structural   Gd2Al7N9
_chemical_formula_sum   'Gd8 Al28 N36'
_cell_volume   897.00647213
_cell_formula_units_Z   4
loop_
 _symmetry_equiv_pos_site_id
 _symmetry_equiv_pos_as_xyz
  1  'x, y, z'
loop_
 _atom_site_type_symbol
 _atom_site_label
 _atom_site_symmetry_multiplicity
 _atom_site_fract_x
 _atom_site_fract_y
 _atom_site_fract_z
 _atom_site_occupancy
  Al  Al0  1  0.11185132  0.10983364  0.31015460  1
  Al  Al1  1  0.22912630  0.20513389  0.06414335  1
  Al  Al2  1  0.76018609  0.09855191  0.89609807  1
  Al  Al3  1  0.43934546  0.09049696  0.30026864  1
  Al  Al4  1  0.54596177  0.21835333  0.13659922  1
  Al  Al5  1  0.11572577  0.08608059  0.82956872  1
  Al  Al6  1  0.89316528  0.20289226  0.05972144  1
  Al  Al7  1  0.44098397  0.08873620  0.81945513  1
  Al  Al8  1  0.12213948  0.42370172  0.29936438  1
  Al  Al9  1  0.23670461  0.53344724  0.06801392  1
  Al  Al10  1  0.77425237  0.41768463  0.88088608  1
  Al  Al11  1  0.88874312  0.55253932  0.65377338  1
  Al  Al12  1  0.44375930  0.43681699  0.35465567  1
  Al  Al13  1  0.56141240  0.53115022  0.14011087  1
  Al  Al14  1  0.12777625  0.41867713  0.82275511  1
  Al  Al15  1  0.21612783  0.54487666  0.54680434  1
  Al  Al16  1  0.78449048  0.45401487  0.39195217  1
  Al  Al17  1  0.45565779  0.40372558  0.84971743  1
  Al  Al18  1  0.54160726  0.54355091  0.62652623  1
  Al  Al19  1  0.11671182  0.74625196  0.31387516  1
  Al  Al20  1  0.21289982  0.88069281  0.08108362  1
  Al  Al21  1  0.77332315  0.78489257  0.82607721  1
  Al  Al22  1  0.90177046  0.84792713  0.54473535  1
  Al  Al23  1  0.44011275  0.77056190  0.30103471  1
  Al  Al24  1  0.55612467  0.88960042  0.06968350  1
  Al  Al25  1  0.21473278  0.86490817  0.55573200  1
  Al  Al26  1  0.77919380  0.76051084  0.30115325  1
  Al  Al27  1  0.89162225  0.87442106  0.07289918  1
  Gd  Gd28  1  0.86020239  0.22014493  0.61985889  1
  Gd  Gd29  1  0.19152233  0.20740283  0.56441815  1
  Gd  Gd30  1  0.80680890  0.09071174  0.33602577  1
  Gd  Gd31  1  0.54124298  0.19532986  0.57992217  1
  Gd  Gd32  1  0.89088889  0.54357396  0.08587027  1
  Gd  Gd33  1  0.10824625  0.76631044  0.80066488  1
  Gd  Gd34  1  0.45191527  0.74689673  0.85704227  1
  Gd  Gd35  1  0.56888495  0.83205403  0.56308503  1
  N  N36  1  0.22914384  0.20599890  0.35105340  1
  N  N37  1  0.10321183  0.10449709  0.12775776  1
  N  N38  1  0.89255892  0.19581908  0.87129087  1
  N  N39  1  0.79168581  0.06121149  0.55268141  1
  N  N40  1  0.53810744  0.21405651  0.32756190  1
  N  N41  1  0.44194075  0.09857177  0.11825215  1
  N  N42  1  0.21883193  0.20434920  0.87858913  1
  N  N43  1  0.11061197  0.05237830  0.65394448  1
  N  N44  1  0.91769872  0.23279547  0.39692746  1
  N  N45  1  0.77259928  0.10307565  0.09073781  1
  N  N46  1  0.55794842  0.19436580  0.82705906  1
  N  N47  1  0.42545738  0.06709271  0.64450842  1
  N  N48  1  0.22006599  0.53356168  0.36361109  1
  N  N49  1  0.14972434  0.41067163  0.11948151  1
  N  N50  1  0.88567442  0.53485745  0.84395663  1
  N  N51  1  0.74867568  0.50244130  0.57078643  1
  N  N52  1  0.56399489  0.54273846  0.32123776  1
  N  N53  1  0.44738525  0.43272354  0.11235552  1
  N  N54  1  0.24003232  0.51612124  0.88430158  1
  N  N55  1  0.11311272  0.44927758  0.64165627  1
  N  N56  1  0.89422243  0.53995257  0.31313346  1
  N  N57  1  0.75690068  0.41948306  0.06000009  1
  N  N58  1  0.58198072  0.48439215  0.80327943  1
  N  N59  1  0.43817684  0.44962612  0.55628612  1
  N  N60  1  0.21892946  0.88033685  0.36414122  1
  N  N61  1  0.11309459  0.75845481  0.12808720  1
  N  N62  1  0.87363324  0.88199066  0.89492183  1
  N  N63  1  0.80673923  0.76544947  0.65086293  1
  N  N64  1  0.55320062  0.87327756  0.34784381  1
  N  N65  1  0.44473722  0.76678161  0.11430985  1
  N  N66  1  0.20300399  0.89468814  0.90716800  1
  N  N67  1  0.11269605  0.75349004  0.58573550  1
  N  N68  1  0.90565298  0.83204056  0.36580651  1
  N  N69  1  0.76282232  0.79847132  0.12607353  1
  N  N70  1  0.56694501  0.88667370  0.88843902  1
  N  N71  1  0.40752473  0.75472879  0.64044758  1
