# generated using pymatgen
data_Gd2Al7N9
_symmetry_space_group_name_H-M   'P 1'
_cell_length_a   9.84308857
_cell_length_b   9.86619354
_cell_length_c   10.46641288
_cell_angle_alpha   89.55922154
_cell_angle_beta   89.82177624
_cell_angle_gamma   59.96043186
_symmetry_Int_Tables_number   1
_chemical_formula_structural   Gd2Al7N9
_chemical_formula_sum   'Gd8 Al28 N36'
_cell_volume   879.87952105
_cell_formula_units_Z   4
loop_
 _symmetry_equiv_pos_site_id
 _symmetry_equiv_pos_as_xyz
  1  'x, y, z'
loop_
 _atom_site_type_symbol
 _atom_site_label
 _atom_site_symmetry_multiplicity
 _atom_site_fract_x
 _atom_site_fract_y
 _atom_site_fract_z
 _atom_site_occupancy
  Al  Al0  1  0.11307508  0.09955673  0.28754175  1
  Al  Al1  1  0.22342229  0.20662907  0.05012512  1
  Al  Al2  1  0.77465939  0.08808217  0.81651782  1
  Al  Al3  1  0.43860369  0.09757325  0.27798054  1
  Al  Al4  1  0.55081671  0.21151618  0.03988582  1
  Al  Al5  1  0.11412902  0.09363832  0.81494136  1
  Al  Al6  1  0.88593177  0.20740476  0.03791244  1
  Al  Al7  1  0.44454068  0.09701556  0.81791084  1
  Al  Al8  1  0.11966402  0.42310819  0.29629334  1
  Al  Al9  1  0.22853017  0.53337260  0.05477602  1
  Al  Al10  1  0.77315184  0.43586310  0.80091729  1
  Al  Al11  1  0.89182088  0.54746163  0.55750195  1
  Al  Al12  1  0.43847494  0.42793556  0.29356718  1
  Al  Al13  1  0.55572288  0.52714043  0.05683248  1
  Al  Al14  1  0.11371991  0.42798918  0.80278807  1
  Al  Al15  1  0.22028752  0.54665915  0.54285157  1
  Al  Al16  1  0.77888200  0.42607534  0.30527290  1
  Al  Al17  1  0.44398491  0.42745873  0.80959946  1
  Al  Al18  1  0.54356420  0.54890666  0.54528535  1
  Al  Al19  1  0.11202555  0.75321692  0.30391094  1
  Al  Al20  1  0.21681532  0.87537966  0.06341560  1
  Al  Al21  1  0.78196439  0.76361248  0.80187811  1
  Al  Al22  1  0.90013254  0.85791314  0.54519675  1
  Al  Al23  1  0.44383432  0.75869480  0.28957270  1
  Al  Al24  1  0.55746684  0.87977606  0.05586418  1
  Al  Al25  1  0.22204684  0.86497757  0.53202816  1
  Al  Al26  1  0.77858990  0.76172302  0.29485165  1
  Al  Al27  1  0.88773359  0.87502151  0.04716504  1
  Gd  Gd28  1  0.89059505  0.20489957  0.57696203  1
  Gd  Gd29  1  0.21530873  0.20404866  0.55078417  1
  Gd  Gd30  1  0.78163695  0.09623998  0.28697088  1
  Gd  Gd31  1  0.55007655  0.21417015  0.56357284  1
  Gd  Gd32  1  0.88547044  0.53974878  0.05956876  1
  Gd  Gd33  1  0.10963762  0.76256033  0.78976319  1
  Gd  Gd34  1  0.44419237  0.76196868  0.80744773  1
  Gd  Gd35  1  0.56784185  0.86342192  0.54105162  1
  N  N36  1  0.22691392  0.20033319  0.33323438  1
  N  N37  1  0.10415506  0.10157858  0.10447594  1
  N  N38  1  0.88796532  0.21225143  0.84769446  1
  N  N39  1  0.79423605  0.05485563  0.62969206  1
  N  N40  1  0.52928832  0.21354150  0.34507376  1
  N  N41  1  0.44291231  0.09913154  0.09414390  1
  N  N42  1  0.21746958  0.20983334  0.86228936  1
  N  N43  1  0.13442525  0.04939367  0.63558731  1
  N  N44  1  0.91022522  0.21563589  0.36209064  1
  N  N45  1  0.77671549  0.09785336  0.07242764  1
  N  N46  1  0.55235670  0.21006945  0.85420593  1
  N  N47  1  0.44221910  0.08810702  0.63975813  1
  N  N48  1  0.22588486  0.53286516  0.35682446  1
  N  N49  1  0.13716429  0.41530738  0.11584143  1
  N  N50  1  0.88962808  0.53911512  0.84571420  1
  N  N51  1  0.75269746  0.47139947  0.61695077  1
  N  N52  1  0.55395464  0.53373314  0.35713653  1
  N  N53  1  0.44349144  0.42581163  0.11002554  1
  N  N54  1  0.23393740  0.51512542  0.87349656  1
  N  N55  1  0.10598611  0.45270737  0.61732297  1
  N  N56  1  0.88882908  0.54023680  0.35405339  1
  N  N57  1  0.76470657  0.40677435  0.12233184  1
  N  N58  1  0.57051506  0.50958155  0.87558087  1
  N  N59  1  0.42387318  0.46488410  0.62601164  1
  N  N60  1  0.21945519  0.87624937  0.34305287  1
  N  N61  1  0.10852309  0.75876500  0.11337801  1
  N  N62  1  0.87205319  0.87593955  0.87013173  1
  N  N63  1  0.81028096  0.74930034  0.62106459  1
  N  N64  1  0.55122534  0.87486915  0.32548206  1
  N  N65  1  0.44811959  0.75528043  0.10283895  1
  N  N66  1  0.20564961  0.89532136  0.88761760  1
  N  N67  1  0.11490167  0.76024722  0.57123336  1
  N  N68  1  0.89573769  0.84908411  0.36312225  1
  N  N69  1  0.76792496  0.79137036  0.11716574  1
  N  N70  1  0.57218372  0.88181837  0.87080071  1
  N  N71  1  0.42692271  0.75626091  0.58843940  1
