# generated using pymatgen
data_Gd2Al7N9
_symmetry_space_group_name_H-M   'P 1'
_cell_length_a   9.84774499
_cell_length_b   9.86969493
_cell_length_c   10.55442545
_cell_angle_alpha   89.11389389
_cell_angle_beta   89.72754005
_cell_angle_gamma   60.01115714
_symmetry_Int_Tables_number   1
_chemical_formula_structural   Gd2Al7N9
_chemical_formula_sum   'Gd8 Al28 N36'
_cell_volume   888.38264334
_cell_formula_units_Z   4
loop_
 _symmetry_equiv_pos_site_id
 _symmetry_equiv_pos_as_xyz
  1  'x, y, z'
loop_
 _atom_site_type_symbol
 _atom_site_label
 _atom_site_symmetry_multiplicity
 _atom_site_fract_x
 _atom_site_fract_y
 _atom_site_fract_z
 _atom_site_occupancy
  Al  Al0  1  0.11381539  0.09735180  0.28923126  1
  Al  Al1  1  0.22585899  0.20293040  0.05207629  1
  Al  Al2  1  0.77061714  0.10125761  0.86078870  1
  Al  Al3  1  0.43780519  0.09521892  0.28091066  1
  Al  Al4  1  0.54210187  0.21594249  0.04786634  1
  Al  Al5  1  0.11354292  0.09279308  0.81585575  1
  Al  Al6  1  0.88960266  0.20820836  0.04645223  1
  Al  Al7  1  0.44505316  0.09609092  0.81800076  1
  Al  Al8  1  0.11671582  0.42128755  0.29062100  1
  Al  Al9  1  0.22964111  0.53458398  0.05670578  1
  Al  Al10  1  0.76625177  0.43153532  0.81158773  1
  Al  Al11  1  0.89342903  0.54778679  0.64536499  1
  Al  Al12  1  0.43840448  0.42634334  0.29691590  1
  Al  Al13  1  0.55221768  0.52941689  0.05856099  1
  Al  Al14  1  0.12859449  0.42071770  0.81484595  1
  Al  Al15  1  0.22025341  0.54572927  0.54553750  1
  Al  Al16  1  0.78044677  0.42506430  0.29744885  1
  Al  Al17  1  0.44247687  0.43066078  0.81062650  1
  Al  Al18  1  0.54358306  0.55080979  0.54745688  1
  Al  Al19  1  0.11355428  0.74847984  0.30583021  1
  Al  Al20  1  0.21846400  0.87332981  0.06339334  1
  Al  Al21  1  0.77341986  0.78253281  0.81236656  1
  Al  Al22  1  0.90282969  0.85476982  0.53925808  1
  Al  Al23  1  0.44433894  0.75710318  0.29226968  1
  Al  Al24  1  0.55491839  0.88028005  0.05934931  1
  Al  Al25  1  0.22168674  0.86623217  0.53166945  1
  Al  Al26  1  0.78135532  0.75423118  0.28722329  1
  Al  Al27  1  0.89098278  0.87311903  0.05169857  1
  Gd  Gd28  1  0.88707633  0.21118660  0.57223813  1
  Gd  Gd29  1  0.21434024  0.20574273  0.55326473  1
  Gd  Gd30  1  0.78202112  0.09047357  0.29310160  1
  Gd  Gd31  1  0.54499051  0.21609978  0.56285603  1
  Gd  Gd32  1  0.88720190  0.53900937  0.06389939  1
  Gd  Gd33  1  0.10523364  0.76591577  0.78702574  1
  Gd  Gd34  1  0.44345916  0.76481570  0.80321625  1
  Gd  Gd35  1  0.57914278  0.85817151  0.53838393  1
  N  N36  1  0.22634190  0.19863468  0.33574251  1
  N  N37  1  0.10651496  0.09885162  0.10673018  1
  N  N38  1  0.88894837  0.21234612  0.85677561  1
  N  N39  1  0.79164184  0.05974304  0.59306878  1
  N  N40  1  0.52878538  0.21116676  0.34521784  1
  N  N41  1  0.44220422  0.09785671  0.09902859  1
  N  N42  1  0.22087425  0.20507670  0.86619986  1
  N  N43  1  0.13068060  0.05103324  0.63699298  1
  N  N44  1  0.90895749  0.21497435  0.35765603  1
  N  N45  1  0.77462363  0.10017797  0.06881163  1
  N  N46  1  0.54739572  0.21364493  0.86060596  1
  N  N47  1  0.44412218  0.08054950  0.64126189  1
  N  N48  1  0.22594304  0.52790601  0.35987700  1
  N  N49  1  0.14310920  0.41082948  0.11034675  1
  N  N50  1  0.89125536  0.53874884  0.83757624  1
  N  N51  1  0.74714674  0.47509006  0.63144031  1
  N  N52  1  0.55659913  0.53057050  0.35967658  1
  N  N53  1  0.44200624  0.42745617  0.11485815  1
  N  N54  1  0.23539237  0.52025389  0.87742915  1
  N  N55  1  0.11371482  0.44956698  0.63245721  1
  N  N56  1  0.89141649  0.53464157  0.30827257  1
  N  N57  1  0.76146860  0.40696779  0.11676651  1
  N  N58  1  0.56404540  0.51417491  0.87945471  1
  N  N59  1  0.42428162  0.46766153  0.62917810  1
  N  N60  1  0.21907783  0.87433079  0.34440043  1
  N  N61  1  0.10949243  0.75766487  0.11595216  1
  N  N62  1  0.87231930  0.88430157  0.87518113  1
  N  N63  1  0.81265809  0.75825871  0.63627802  1
  N  N64  1  0.55421225  0.87116085  0.32403826  1
  N  N65  1  0.44690233  0.75499629  0.10622621  1
  N  N66  1  0.20641048  0.89316844  0.88769822  1
  N  N67  1  0.11649362  0.75884803  0.57035743  1
  N  N68  1  0.89816792  0.83833828  0.35992665  1
  N  N69  1  0.76616098  0.79395400  0.11139422  1
  N  N70  1  0.56787011  0.88460932  0.87652892  1
  N  N71  1  0.42865438  0.76020094  0.58478779  1
