# generated using pymatgen
data_Gd2Al7N9
_symmetry_space_group_name_H-M   'P 1'
_cell_length_a   9.87053731
_cell_length_b   9.86433604
_cell_length_c   10.61372292
_cell_angle_alpha   89.41201889
_cell_angle_beta   90.19927410
_cell_angle_gamma   60.08715642
_symmetry_Int_Tables_number   1
_chemical_formula_structural   Gd2Al7N9
_chemical_formula_sum   'Gd8 Al28 N36'
_cell_volume   895.66077018
_cell_formula_units_Z   4
loop_
 _symmetry_equiv_pos_site_id
 _symmetry_equiv_pos_as_xyz
  1  'x, y, z'
loop_
 _atom_site_type_symbol
 _atom_site_label
 _atom_site_symmetry_multiplicity
 _atom_site_fract_x
 _atom_site_fract_y
 _atom_site_fract_z
 _atom_site_occupancy
  Al  Al0  1  0.11091332  0.10113553  0.38945675  1
  Al  Al1  1  0.22180817  0.21114546  0.15767098  1
  Al  Al2  1  0.77212147  0.10505398  0.93703226  1
  Al  Al3  1  0.42818095  0.11286891  0.38642906  1
  Al  Al4  1  0.53944170  0.21825053  0.14145584  1
  Al  Al5  1  0.10552305  0.10642422  0.93234105  1
  Al  Al6  1  0.88483118  0.21768661  0.16093515  1
  Al  Al7  1  0.44575422  0.09102481  0.92613178  1
  Al  Al8  1  0.10211387  0.43713236  0.39822309  1
  Al  Al9  1  0.22916552  0.53358060  0.15495985  1
  Al  Al10  1  0.77766017  0.40732410  0.90337933  1
  Al  Al11  1  0.90194754  0.53753295  0.66145487  1
  Al  Al12  1  0.43441553  0.43363698  0.39457524  1
  Al  Al13  1  0.55269185  0.53040751  0.15368612  1
  Al  Al14  1  0.13233717  0.41023702  0.90467106  1
  Al  Al15  1  0.23017127  0.53052977  0.63728715  1
  Al  Al16  1  0.77377092  0.44648390  0.39991692  1
  Al  Al17  1  0.44774591  0.41782110  0.90873053  1
  Al  Al18  1  0.54818948  0.53511530  0.64677384  1
  Al  Al19  1  0.11198075  0.75366586  0.33255675  1
  Al  Al20  1  0.21425149  0.87704686  0.10268546  1
  Al  Al21  1  0.77340025  0.78796108  0.83622335  1
  Al  Al22  1  0.91499812  0.84473788  0.57247015  1
  Al  Al23  1  0.43573766  0.75744557  0.32561443  1
  Al  Al24  1  0.54366903  0.88971078  0.16449075  1
  Al  Al25  1  0.22982127  0.85061913  0.56370949  1
  Al  Al26  1  0.78558545  0.75527171  0.32908547  1
  Al  Al27  1  0.88441655  0.87888012  0.10034294  1
  Gd  Gd28  1  0.89019533  0.20880621  0.65055929  1
  Gd  Gd29  1  0.23151017  0.19254127  0.65414868  1
  Gd  Gd30  1  0.76903188  0.09544049  0.37308656  1
  Gd  Gd31  1  0.56231013  0.19696224  0.67413034  1
  Gd  Gd32  1  0.88581450  0.54526194  0.11316660  1
  Gd  Gd33  1  0.10112498  0.76855742  0.83778930  1
  Gd  Gd34  1  0.45607057  0.75414100  0.86930224  1
  Gd  Gd35  1  0.58048039  0.83723399  0.58530281  1
  N  N36  1  0.21357537  0.21489219  0.34023102  1
  N  N37  1  0.10205101  0.11047742  0.11532499  1
  N  N38  1  0.89667698  0.19001998  0.87075202  1
  N  N39  1  0.79424337  0.06553042  0.59011021  1
  N  N40  1  0.51514467  0.23087879  0.32129314  1
  N  N41  1  0.43629319  0.09532118  0.10661172  1
  N  N42  1  0.22651217  0.19428073  0.87234416  1
  N  N43  1  0.12204925  0.07032650  0.56820656  1
  N  N44  1  0.89494827  0.23134095  0.34311620  1
  N  N45  1  0.77608855  0.10432613  0.12431885  1
  N  N46  1  0.55774117  0.19974367  0.89823671  1
  N  N47  1  0.45366711  0.09458843  0.55976699  1
  N  N48  1  0.22233406  0.53246568  0.33683602  1
  N  N49  1  0.14536558  0.41658940  0.08480237  1
  N  N50  1  0.89706807  0.52024005  0.85844988  1
  N  N51  1  0.75673724  0.47888819  0.58223529  1
  N  N52  1  0.55639118  0.53234899  0.33612054  1
  N  N53  1  0.43438910  0.44376443  0.08948258  1
  N  N54  1  0.24803755  0.49527428  0.82406372  1
  N  N55  1  0.10113822  0.44578763  0.58037050  1
  N  N56  1  0.88900794  0.53778964  0.33778667  1
  N  N57  1  0.75291502  0.41865208  0.08284950  1
  N  N58  1  0.57973038  0.48238923  0.82522865  1
  N  N59  1  0.43973706  0.44004499  0.57325470  1
  N  N60  1  0.22382718  0.86241913  0.37619066  1
  N  N61  1  0.10347752  0.76679346  0.14748779  1
  N  N62  1  0.86444261  0.88500016  0.92321583  1
  N  N63  1  0.82572128  0.75078934  0.66644934  1
  N  N64  1  0.54907782  0.87248682  0.35302106  1
  N  N65  1  0.44161707  0.76478717  0.13945350  1
  N  N66  1  0.21061955  0.89033215  0.92554101  1
  N  N67  1  0.12274381  0.75251082  0.62135507  1
  N  N68  1  0.90853882  0.83042780  0.39497632  1
  N  N69  1  0.75851019  0.80066154  0.15495588  1
  N  N70  1  0.55881354  0.90360309  0.83818973  1
  N  N71  1  0.42072250  0.75283661  0.64922769  1
