# generated using pymatgen
data_Gd2Al7N9
_symmetry_space_group_name_H-M   'P 1'
_cell_length_a   9.82427583
_cell_length_b   9.96490182
_cell_length_c   10.61519639
_cell_angle_alpha   89.24260455
_cell_angle_beta   89.40928276
_cell_angle_gamma   59.75543265
_symmetry_Int_Tables_number   1
_chemical_formula_structural   Gd2Al7N9
_chemical_formula_sum   'Gd8 Al28 N36'
_cell_volume   897.66613342
_cell_formula_units_Z   4
loop_
 _symmetry_equiv_pos_site_id
 _symmetry_equiv_pos_as_xyz
  1  'x, y, z'
loop_
 _atom_site_type_symbol
 _atom_site_label
 _atom_site_symmetry_multiplicity
 _atom_site_fract_x
 _atom_site_fract_y
 _atom_site_fract_z
 _atom_site_occupancy
  Al  Al0  1  0.11251784  0.10972285  0.31049869  1
  Al  Al1  1  0.22945560  0.20504523  0.06315785  1
  Al  Al2  1  0.75866943  0.10023647  0.89568457  1
  Al  Al3  1  0.43945387  0.08924983  0.29809672  1
  Al  Al4  1  0.54883570  0.21386220  0.12941878  1
  Al  Al5  1  0.11536794  0.08642638  0.83051411  1
  Al  Al6  1  0.89452116  0.20195675  0.05955842  1
  Al  Al7  1  0.44372682  0.09092897  0.81855725  1
  Al  Al8  1  0.12323542  0.42308631  0.30116459  1
  Al  Al9  1  0.23977223  0.53117459  0.06285746  1
  Al  Al10  1  0.77488770  0.41865812  0.88300357  1
  Al  Al11  1  0.88743588  0.55216678  0.65508121  1
  Al  Al12  1  0.43809330  0.43557979  0.31243059  1
  Al  Al13  1  0.56391302  0.53381434  0.13834983  1
  Al  Al14  1  0.12775421  0.41916755  0.82317829  1
  Al  Al15  1  0.21699153  0.54347876  0.55378897  1
  Al  Al16  1  0.78464777  0.45294927  0.39234739  1
  Al  Al17  1  0.44809032  0.40870066  0.80408830  1
  Al  Al18  1  0.54365446  0.54583624  0.63241925  1
  Al  Al19  1  0.11845043  0.74529187  0.31651518  1
  Al  Al20  1  0.21314275  0.87992664  0.08140331  1
  Al  Al21  1  0.77393146  0.78516684  0.82620941  1
  Al  Al22  1  0.90017347  0.84922090  0.54486310  1
  Al  Al23  1  0.44018968  0.76993228  0.30207930  1
  Al  Al24  1  0.55734714  0.88863510  0.06847662  1
  Al  Al25  1  0.21380050  0.86580565  0.55576523  1
  Al  Al26  1  0.77996886  0.76003626  0.30096748  1
  Al  Al27  1  0.89323673  0.87343317  0.07241045  1
  Gd  Gd28  1  0.85722148  0.21926346  0.62227001  1
  Gd  Gd29  1  0.18937514  0.20722508  0.56548828  1
  Gd  Gd30  1  0.80855140  0.09028360  0.33473693  1
  Gd  Gd31  1  0.53256370  0.19901615  0.56261605  1
  Gd  Gd32  1  0.89361061  0.54319578  0.08568693  1
  Gd  Gd33  1  0.10869256  0.76616431  0.80031746  1
  Gd  Gd34  1  0.45112719  0.74918161  0.85610951  1
  Gd  Gd35  1  0.56913932  0.83410655  0.56270730  1
  N  N36  1  0.23060536  0.20523049  0.35229357  1
  N  N37  1  0.10421914  0.10406855  0.12848669  1
  N  N38  1  0.89280177  0.19643855  0.87233392  1
  N  N39  1  0.78616634  0.06366544  0.55104244  1
  N  N40  1  0.53880989  0.21251475  0.32565632  1
  N  N41  1  0.44226651  0.09741987  0.11752131  1
  N  N42  1  0.21914351  0.20414607  0.87864154  1
  N  N43  1  0.10926004  0.05210553  0.65521888  1
  N  N44  1  0.91875281  0.23170508  0.39792330  1
  N  N45  1  0.77397901  0.10229202  0.09082832  1
  N  N46  1  0.55765493  0.19629379  0.83107748  1
  N  N47  1  0.42655463  0.06939604  0.64390747  1
  N  N48  1  0.22766937  0.52942702  0.37062361  1
  N  N49  1  0.15267826  0.41004305  0.12139039  1
  N  N50  1  0.88644754  0.53540110  0.84536129  1
  N  N51  1  0.74815998  0.50126823  0.57034891  1
  N  N52  1  0.56244648  0.54119828  0.32245562  1
  N  N53  1  0.44489633  0.43447735  0.12791333  1
  N  N54  1  0.24248509  0.51504329  0.88319906  1
  N  N55  1  0.11017139  0.44849445  0.64208422  1
  N  N56  1  0.89520375  0.53916309  0.31364597  1
  N  N57  1  0.75923758  0.41864998  0.06211993  1
  N  N58  1  0.58453909  0.48997117  0.80794271  1
  N  N59  1  0.42438807  0.44709439  0.61858835  1
  N  N60  1  0.21901207  0.88047150  0.36438417  1
  N  N61  1  0.11493126  0.75635159  0.12971932  1
  N  N62  1  0.87447356  0.88209310  0.89520200  1
  N  N63  1  0.80679243  0.76504412  0.65127580  1
  N  N64  1  0.55378172  0.87269431  0.34750700  1
  N  N65  1  0.44601406  0.76602509  0.11466460  1
  N  N66  1  0.20178724  0.89480991  0.90831591  1
  N  N67  1  0.11140799  0.75477472  0.58467709  1
  N  N68  1  0.90675060  0.83104407  0.36612996  1
  N  N69  1  0.76363197  0.79819991  0.12636896  1
  N  N70  1  0.56759359  0.88726236  0.88837729  1
  N  N71  1  0.40768232  0.75669309  0.63797177  1
