# generated using pymatgen
data_Gd2Al7N9
_symmetry_space_group_name_H-M   'P 1'
_cell_length_a   9.83287435
_cell_length_b   9.90931883
_cell_length_c   10.63384496
_cell_angle_alpha   89.12083687
_cell_angle_beta   89.59225773
_cell_angle_gamma   60.00942775
_symmetry_Int_Tables_number   1
_chemical_formula_structural   Gd2Al7N9
_chemical_formula_sum   'Gd8 Al28 N36'
_cell_volume   897.29506769
_cell_formula_units_Z   4
loop_
 _symmetry_equiv_pos_site_id
 _symmetry_equiv_pos_as_xyz
  1  'x, y, z'
loop_
 _atom_site_type_symbol
 _atom_site_label
 _atom_site_symmetry_multiplicity
 _atom_site_fract_x
 _atom_site_fract_y
 _atom_site_fract_z
 _atom_site_occupancy
  Al  Al0  1  0.11302531  0.10657869  0.29752771  1
  Al  Al1  1  0.22753065  0.20417852  0.05112648  1
  Al  Al2  1  0.77019336  0.09650189  0.88104115  1
  Al  Al3  1  0.44169229  0.09432612  0.27982632  1
  Al  Al4  1  0.54277260  0.21675471  0.05621414  1
  Al  Al5  1  0.11563808  0.08755703  0.81584961  1
  Al  Al6  1  0.89768480  0.20079359  0.04596826  1
  Al  Al7  1  0.44446321  0.09458107  0.81412001  1
  Al  Al8  1  0.12350477  0.42107862  0.28977359  1
  Al  Al9  1  0.23499618  0.53429408  0.05061688  1
  Al  Al10  1  0.77431027  0.42055811  0.86930588  1
  Al  Al11  1  0.88565428  0.55064829  0.63931165  1
  Al  Al12  1  0.43820376  0.42789758  0.28956347  1
  Al  Al13  1  0.56392661  0.53183686  0.12106792  1
  Al  Al14  1  0.12391523  0.42083038  0.80953205  1
  Al  Al15  1  0.21631368  0.54281668  0.54177214  1
  Al  Al16  1  0.78173425  0.45178016  0.37615062  1
  Al  Al17  1  0.44345953  0.41417879  0.80080248  1
  Al  Al18  1  0.54355810  0.54504243  0.62324657  1
  Al  Al19  1  0.11856280  0.74608397  0.30523775  1
  Al  Al20  1  0.21404310  0.87857334  0.06761551  1
  Al  Al21  1  0.77541363  0.78170647  0.81168959  1
  Al  Al22  1  0.89892878  0.85167767  0.53074803  1
  Al  Al23  1  0.44257235  0.76725211  0.28758612  1
  Al  Al24  1  0.55831212  0.88647461  0.05622347  1
  Al  Al25  1  0.21738139  0.86338953  0.53965095  1
  Al  Al26  1  0.78018102  0.76017157  0.28789306  1
  Al  Al27  1  0.89503824  0.87191396  0.05785502  1
  Gd  Gd28  1  0.86584559  0.21627108  0.59980452  1
  Gd  Gd29  1  0.19994201  0.20344949  0.55423893  1
  Gd  Gd30  1  0.79615073  0.09517360  0.31203013  1
  Gd  Gd31  1  0.52936311  0.20871149  0.54115226  1
  Gd  Gd32  1  0.89405814  0.54216327  0.07436994  1
  Gd  Gd33  1  0.10840947  0.76651018  0.78430063  1
  Gd  Gd34  1  0.44767963  0.75607265  0.83973227  1
  Gd  Gd35  1  0.56910245  0.84125370  0.54876929  1
  N  N36  1  0.23224517  0.20174759  0.33940374  1
  N  N37  1  0.10586850  0.10244000  0.11492314  1
  N  N38  1  0.89419542  0.19825797  0.85525739  1
  N  N39  1  0.78118864  0.06575684  0.54360502  1
  N  N40  1  0.53420624  0.21386971  0.32597790  1
  N  N41  1  0.44183319  0.09777678  0.10033442  1
  N  N42  1  0.21832245  0.20512380  0.86606938  1
  N  N43  1  0.11618247  0.04968153  0.64019302  1
  N  N44  1  0.91595764  0.22875925  0.37907027  1
  N  N45  1  0.77897438  0.09951683  0.07399306  1
  N  N46  1  0.54874664  0.20726973  0.86714591  1
  N  N47  1  0.43580695  0.07600220  0.63925741  1
  N  N48  1  0.23001790  0.52763517  0.35773732  1
  N  N49  1  0.15188577  0.40923509  0.11012884  1
  N  N50  1  0.88556344  0.53618322  0.83129321  1
  N  N51  1  0.74607273  0.49801017  0.55605289  1
  N  N52  1  0.56269026  0.53710256  0.30431303  1
  N  N53  1  0.44486523  0.43096872  0.10709464  1
  N  N54  1  0.23552990  0.51860760  0.87175116  1
  N  N55  1  0.10725745  0.44791338  0.62820242  1
  N  N56  1  0.89529397  0.53830045  0.30154934  1
  N  N57  1  0.76072747  0.41670243  0.04801473  1
  N  N58  1  0.58046418  0.49577634  0.80029799  1
  N  N59  1  0.41903743  0.44846533  0.61914276  1
  N  N60  1  0.22229186  0.87734574  0.35007385  1
  N  N61  1  0.11505254  0.75545326  0.11739706  1
  N  N62  1  0.87627828  0.87981934  0.87944692  1
  N  N63  1  0.80744395  0.76342812  0.63642001  1
  N  N64  1  0.55474593  0.87311679  0.33231172  1
  N  N65  1  0.44634342  0.76519899  0.09961333  1
  N  N66  1  0.19953166  0.89577552  0.89470321  1
  N  N67  1  0.11111452  0.75535633  0.56889620  1
  N  N68  1  0.90539703  0.83452257  0.35255945  1
  N  N69  1  0.76473672  0.79769153  0.11307836  1
  N  N70  1  0.57078381  0.88717467  0.87607834  1
  N  N71  1  0.41123216  0.75720229  0.62104504  1
