# generated using pymatgen
data_Gd2Al7N9
_symmetry_space_group_name_H-M   'P 1'
_cell_length_a   9.84247191
_cell_length_b   9.87826288
_cell_length_c   10.57063408
_cell_angle_alpha   88.92626040
_cell_angle_beta   89.83824484
_cell_angle_gamma   60.11075320
_symmetry_Int_Tables_number   1
_chemical_formula_structural   Gd2Al7N9
_chemical_formula_sum   'Gd8 Al28 N36'
_cell_volume   890.86419260
_cell_formula_units_Z   4
loop_
 _symmetry_equiv_pos_site_id
 _symmetry_equiv_pos_as_xyz
  1  'x, y, z'
loop_
 _atom_site_type_symbol
 _atom_site_label
 _atom_site_symmetry_multiplicity
 _atom_site_fract_x
 _atom_site_fract_y
 _atom_site_fract_z
 _atom_site_occupancy
  Al  Al0  1  0.11567063  0.09657606  0.29066213  1
  Al  Al1  1  0.22602966  0.20250589  0.05150453  1
  Al  Al2  1  0.76752019  0.10518410  0.88084083  1
  Al  Al3  1  0.43816757  0.09364452  0.28011662  1
  Al  Al4  1  0.53954458  0.21718848  0.05495384  1
  Al  Al5  1  0.11099077  0.09344705  0.81762845  1
  Al  Al6  1  0.89046660  0.20867948  0.05250883  1
  Al  Al7  1  0.44444624  0.09820607  0.81837934  1
  Al  Al8  1  0.11941909  0.41943896  0.29119933  1
  Al  Al9  1  0.23025748  0.53428516  0.05512453  1
  Al  Al10  1  0.76624058  0.43226091  0.81205308  1
  Al  Al11  1  0.89256490  0.55015385  0.64611892  1
  Al  Al12  1  0.43927822  0.42740205  0.29506406  1
  Al  Al13  1  0.55257980  0.53056752  0.05823509  1
  Al  Al14  1  0.12842769  0.42144449  0.81414738  1
  Al  Al15  1  0.22037302  0.54660515  0.54660749  1
  Al  Al16  1  0.78225940  0.42416906  0.29841551  1
  Al  Al17  1  0.44346513  0.43055108  0.81119491  1
  Al  Al18  1  0.54418691  0.55247504  0.54767246  1
  Al  Al19  1  0.11772486  0.74424143  0.30208901  1
  Al  Al20  1  0.21980015  0.87281827  0.06369378  1
  Al  Al21  1  0.77280866  0.78495932  0.81329320  1
  Al  Al22  1  0.90580759  0.84843842  0.53097347  1
  Al  Al23  1  0.44606657  0.75642563  0.29311295  1
  Al  Al24  1  0.55479983  0.87934671  0.05796787  1
  Al  Al25  1  0.22075362  0.86593337  0.53153010  1
  Al  Al26  1  0.78308872  0.75029061  0.28503906  1
  Al  Al27  1  0.89176099  0.87158681  0.05503289  1
  Gd  Gd28  1  0.88125961  0.21002192  0.57301991  1
  Gd  Gd29  1  0.20846521  0.20600191  0.55529186  1
  Gd  Gd30  1  0.78544940  0.08597481  0.30659884  1
  Gd  Gd31  1  0.53565525  0.22182026  0.55432169  1
  Gd  Gd32  1  0.88933149  0.53669207  0.06380095  1
  Gd  Gd33  1  0.10295627  0.76815100  0.78857401  1
  Gd  Gd34  1  0.44212534  0.76633303  0.80179794  1
  Gd  Gd35  1  0.57869120  0.86271741  0.53867480  1
  N  N36  1  0.22888257  0.19662213  0.33842635  1
  N  N37  1  0.10777760  0.09827770  0.10824693  1
  N  N38  1  0.88709869  0.21329751  0.86035043  1
  N  N39  1  0.78314905  0.06172019  0.54362714  1
  N  N40  1  0.52629154  0.21310612  0.33776270  1
  N  N41  1  0.44155471  0.09579644  0.09893231  1
  N  N42  1  0.21933558  0.20600888  0.86587585  1
  N  N43  1  0.12483513  0.04958798  0.63890418  1
  N  N44  1  0.91318329  0.21633778  0.36028728  1
  N  N45  1  0.77496853  0.09977876  0.07281762  1
  N  N46  1  0.54639782  0.21493939  0.86533289  1
  N  N47  1  0.44082950  0.08445085  0.64141888  1
  N  N48  1  0.22920316  0.52616670  0.36101891  1
  N  N49  1  0.14585119  0.40907375  0.11084394  1
  N  N50  1  0.89126310  0.54030120  0.83745561  1
  N  N51  1  0.74826267  0.47512051  0.63152771  1
  N  N52  1  0.55813058  0.52995406  0.36033227  1
  N  N53  1  0.44129486  0.43010664  0.11413891  1
  N  N54  1  0.23519533  0.52095386  0.87625670  1
  N  N55  1  0.11300383  0.45011402  0.63187503  1
  N  N56  1  0.89426829  0.53187362  0.30681683  1
  N  N57  1  0.76118977  0.40753717  0.11816002  1
  N  N58  1  0.56413718  0.51601523  0.87940512  1
  N  N59  1  0.42591575  0.46840326  0.62983735  1
  N  N60  1  0.21991902  0.87284145  0.34418774  1
  N  N61  1  0.11196603  0.75557382  0.11397059  1
  N  N62  1  0.87006945  0.88866771  0.87668752  1
  N  N63  1  0.81327003  0.76126386  0.63698373  1
  N  N64  1  0.55703644  0.86966141  0.32437939  1
  N  N65  1  0.44750311  0.75497471  0.10689682  1
  N  N66  1  0.20673556  0.89360970  0.88854482  1
  N  N67  1  0.11590380  0.75887487  0.57240584  1
  N  N68  1  0.90660520  0.82647780  0.35310901  1
  N  N69  1  0.76626002  0.79091657  0.10909726  1
  N  N70  1  0.56673835  0.88579750  0.87523991  1
  N  N71  1  0.42884541  0.76236538  0.58327816  1
