# generated using pymatgen
data_Gd2Al7N9
_symmetry_space_group_name_H-M   'P 1'
_cell_length_a   9.77107064
_cell_length_b   9.89144886
_cell_length_c   10.76572497
_cell_angle_alpha   89.29748952
_cell_angle_beta   89.11828458
_cell_angle_gamma   59.88524568
_symmetry_Int_Tables_number   1
_chemical_formula_structural   Gd2Al7N9
_chemical_formula_sum   'Gd8 Al28 N36'
_cell_volume   899.94343164
_cell_formula_units_Z   4
loop_
 _symmetry_equiv_pos_site_id
 _symmetry_equiv_pos_as_xyz
  1  'x, y, z'
loop_
 _atom_site_type_symbol
 _atom_site_label
 _atom_site_symmetry_multiplicity
 _atom_site_fract_x
 _atom_site_fract_y
 _atom_site_fract_z
 _atom_site_occupancy
  Al  Al0  1  0.10819263  0.09681385  0.33018827  1
  Al  Al1  1  0.23008289  0.20326290  0.15287023  1
  Al  Al2  1  0.76775995  0.09459221  0.92320451  1
  Al  Al3  1  0.44333819  0.09522049  0.37715745  1
  Al  Al4  1  0.54452641  0.21633129  0.15062055  1
  Al  Al5  1  0.12585710  0.08669039  0.84280522  1
  Al  Al6  1  0.89853774  0.19989237  0.07860156  1
  Al  Al7  1  0.43737132  0.10065090  0.92681584  1
  Al  Al8  1  0.11583987  0.43709775  0.31743795  1
  Al  Al9  1  0.23193340  0.53954891  0.08294815  1
  Al  Al10  1  0.77809827  0.41368242  0.89830360  1
  Al  Al11  1  0.88546240  0.55456597  0.67305379  1
  Al  Al12  1  0.44667496  0.43037200  0.39436678  1
  Al  Al13  1  0.56453765  0.52393343  0.15569734  1
  Al  Al14  1  0.13393310  0.41474506  0.83278610  1
  Al  Al15  1  0.21290069  0.54734457  0.56570839  1
  Al  Al16  1  0.78529489  0.44935712  0.41063744  1
  Al  Al17  1  0.46207789  0.40695389  0.91226168  1
  Al  Al18  1  0.54124721  0.53835246  0.64995197  1
  Al  Al19  1  0.11530279  0.75018101  0.33475944  1
  Al  Al20  1  0.21488432  0.87862543  0.09577702  1
  Al  Al21  1  0.77035831  0.78838308  0.84325101  1
  Al  Al22  1  0.89532758  0.85515372  0.56694496  1
  Al  Al23  1  0.43931566  0.76269781  0.31681497  1
  Al  Al24  1  0.55618624  0.88060084  0.11422385  1
  Al  Al25  1  0.21697748  0.86498795  0.57641645  1
  Al  Al26  1  0.78398270  0.75691298  0.31713506  1
  Al  Al27  1  0.89469076  0.87409055  0.09286126  1
  Gd  Gd28  1  0.85765607  0.21927837  0.64485668  1
  Gd  Gd29  1  0.17127215  0.22003920  0.56335677  1
  Gd  Gd30  1  0.78831107  0.10025955  0.36584679  1
  Gd  Gd31  1  0.52743440  0.19962649  0.65833918  1
  Gd  Gd32  1  0.89733395  0.54412877  0.09180532  1
  Gd  Gd33  1  0.11187786  0.76662032  0.81906414  1
  Gd  Gd34  1  0.45833645  0.74529183  0.87423706  1
  Gd  Gd35  1  0.57180238  0.82605700  0.56715755  1
  N  N36  1  0.22296159  0.20595046  0.33865856  1
  N  N37  1  0.10307255  0.09745733  0.15175638  1
  N  N38  1  0.89959410  0.19094619  0.89104137  1
  N  N39  1  0.76983870  0.07220126  0.58033124  1
  N  N40  1  0.52659920  0.22556925  0.32684847  1
  N  N41  1  0.44170553  0.10035304  0.10604326  1
  N  N42  1  0.22746664  0.20283717  0.86992954  1
  N  N43  1  0.11433377  0.05403011  0.66914526  1
  N  N44  1  0.92183548  0.22622086  0.42234653  1
  N  N45  1  0.77777263  0.10048801  0.11197133  1
  N  N46  1  0.55706194  0.19478601  0.87556917  1
  N  N47  1  0.42648746  0.08541231  0.55160757  1
  N  N48  1  0.21976313  0.53696253  0.38579917  1
  N  N49  1  0.15020228  0.41816797  0.14415673  1
  N  N50  1  0.88565044  0.53365529  0.85770862  1
  N  N51  1  0.74822977  0.49996311  0.58704549  1
  N  N52  1  0.56445931  0.53141745  0.33509854  1
  N  N53  1  0.45600140  0.42899104  0.09167255  1
  N  N54  1  0.23488633  0.51939547  0.90282646  1
  N  N55  1  0.11077649  0.45210589  0.65469631  1
  N  N56  1  0.89275989  0.53796637  0.33196451  1
  N  N57  1  0.76241062  0.41847698  0.07637963  1
  N  N58  1  0.58510799  0.47537590  0.82158961  1
  N  N59  1  0.44254632  0.44064976  0.57237039  1
  N  N60  1  0.22213224  0.87462592  0.38638614  1
  N  N61  1  0.11510055  0.75809047  0.14962648  1
  N  N62  1  0.87816225  0.87697259  0.91617579  1
  N  N63  1  0.79778076  0.77099756  0.66935729  1
  N  N64  1  0.55539268  0.86697913  0.34761365  1
  N  N65  1  0.44378052  0.76019151  0.13504945  1
  N  N66  1  0.20795312  0.89500021  0.92510394  1
  N  N67  1  0.10901375  0.75752976  0.60616791  1
  N  N68  1  0.90137499  0.83730358  0.38881878  1
  N  N69  1  0.76964830  0.79433123  0.14647477  1
  N  N70  1  0.56899998  0.88383425  0.90986317  1
  N  N71  1  0.41114099  0.75355032  0.65941904  1
