# generated using pymatgen
data_Gd2Al7N9
_symmetry_space_group_name_H-M   'P 1'
_cell_length_a   9.87825817
_cell_length_b   9.91709571
_cell_length_c   10.53809904
_cell_angle_alpha   89.67593234
_cell_angle_beta   90.00939370
_cell_angle_gamma   60.16263353
_symmetry_Int_Tables_number   1
_chemical_formula_structural   Gd2Al7N9
_chemical_formula_sum   'Gd8 Al28 N36'
_cell_volume   895.48367100
_cell_formula_units_Z   4
loop_
 _symmetry_equiv_pos_site_id
 _symmetry_equiv_pos_as_xyz
  1  'x, y, z'
loop_
 _atom_site_type_symbol
 _atom_site_label
 _atom_site_symmetry_multiplicity
 _atom_site_fract_x
 _atom_site_fract_y
 _atom_site_fract_z
 _atom_site_occupancy
  Al  Al0  1  0.10401808  0.10731146  0.33903442  1
  Al  Al1  1  0.22410769  0.21327141  0.15674764  1
  Al  Al2  1  0.76922995  0.09800033  0.92947057  1
  Al  Al3  1  0.43326004  0.11006101  0.38540248  1
  Al  Al4  1  0.53873153  0.21841392  0.13868927  1
  Al  Al5  1  0.11897115  0.08294994  0.85122651  1
  Al  Al6  1  0.89215981  0.20642397  0.09643588  1
  Al  Al7  1  0.44356924  0.08883078  0.92164990  1
  Al  Al8  1  0.10001129  0.44250228  0.39612212  1
  Al  Al9  1  0.22920651  0.53659300  0.15405739  1
  Al  Al10  1  0.77884433  0.41030854  0.89823839  1
  Al  Al11  1  0.89896912  0.54300380  0.66148294  1
  Al  Al12  1  0.43631445  0.43307160  0.39317789  1
  Al  Al13  1  0.55282477  0.53109305  0.15564662  1
  Al  Al14  1  0.13470387  0.40792749  0.90048010  1
  Al  Al15  1  0.23015366  0.53042663  0.63339911  1
  Al  Al16  1  0.77333161  0.45276425  0.40591332  1
  Al  Al17  1  0.44886349  0.41531294  0.90674609  1
  Al  Al18  1  0.54586513  0.53570027  0.64693435  1
  Al  Al19  1  0.11331139  0.75655911  0.33898237  1
  Al  Al20  1  0.21092402  0.88421485  0.10102808  1
  Al  Al21  1  0.77460529  0.78607896  0.83758130  1
  Al  Al22  1  0.91193938  0.84544269  0.57024766  1
  Al  Al23  1  0.43203806  0.76267525  0.32922900  1
  Al  Al24  1  0.54336961  0.88917835  0.16212723  1
  Al  Al25  1  0.22395440  0.85752568  0.58008311  1
  Al  Al26  1  0.78390904  0.75735835  0.32724875  1
  Al  Al27  1  0.88745832  0.87670463  0.09931451  1
  Gd  Gd28  1  0.87848547  0.21766879  0.62886397  1
  Gd  Gd29  1  0.22330802  0.20127432  0.63760185  1
  Gd  Gd30  1  0.77709877  0.09721147  0.36378931  1
  Gd  Gd31  1  0.55943345  0.19524386  0.66966034  1
  Gd  Gd32  1  0.88672676  0.54533432  0.11170372  1
  Gd  Gd33  1  0.10422087  0.76908221  0.83120443  1
  Gd  Gd34  1  0.46080383  0.74612921  0.87635621  1
  Gd  Gd35  1  0.57925586  0.83160219  0.58990530  1
  N  N36  1  0.21621291  0.21923690  0.34422912  1
  N  N37  1  0.10252431  0.10328567  0.15412300  1
  N  N38  1  0.89919615  0.18987531  0.89299404  1
  N  N39  1  0.79136411  0.06308336  0.58732560  1
  N  N40  1  0.51919630  0.22974090  0.32063080  1
  N  N41  1  0.43543066  0.09480547  0.10449992  1
  N  N42  1  0.23075912  0.19540008  0.85962005  1
  N  N43  1  0.12255989  0.04674465  0.66924418  1
  N  N44  1  0.90091994  0.23193170  0.40088874  1
  N  N45  1  0.77579668  0.10295753  0.11976701  1
  N  N46  1  0.55616342  0.19732684  0.89562555  1
  N  N47  1  0.45365748  0.08774141  0.55943497  1
  N  N48  1  0.22365151  0.53550472  0.33671013  1
  N  N49  1  0.14734536  0.41534156  0.08295252  1
  N  N50  1  0.89911554  0.51924163  0.85670833  1
  N  N51  1  0.74701609  0.49884820  0.58514661  1
  N  N52  1  0.55499070  0.53618816  0.33796169  1
  N  N53  1  0.43595987  0.44314243  0.08888279  1
  N  N54  1  0.24862973  0.49720829  0.82278541  1
  N  N55  1  0.09495289  0.45441060  0.57725515  1
  N  N56  1  0.88827342  0.53972111  0.33470447  1
  N  N57  1  0.75174126  0.42249449  0.08038256  1
  N  N58  1  0.58361900  0.47551302  0.82320290  1
  N  N59  1  0.44139375  0.43685546  0.57221585  1
  N  N60  1  0.21786626  0.87863695  0.39061026  1
  N  N61  1  0.10518002  0.76959446  0.15008801  1
  N  N62  1  0.86899304  0.88126099  0.92091129  1
  N  N63  1  0.82327238  0.75418901  0.66691655  1
  N  N64  1  0.54945106  0.87302753  0.35168394  1
  N  N65  1  0.43840974  0.76623090  0.14106551  1
  N  N66  1  0.21234770  0.89119623  0.92705529  1
  N  N67  1  0.12180225  0.74719213  0.61391611  1
  N  N68  1  0.90635689  0.83292258  0.39171725  1
  N  N69  1  0.75851902  0.80077187  0.15127555  1
  N  N70  1  0.56122859  0.89557874  0.84406060  1
  N  N71  1  0.41887250  0.74836371  0.65598420  1
