# generated using pymatgen
data_Gd2Al7N9
_symmetry_space_group_name_H-M   'P 1'
_cell_length_a   9.83772561
_cell_length_b   9.90500048
_cell_length_c   10.63405563
_cell_angle_alpha   89.07760378
_cell_angle_beta   89.59544826
_cell_angle_gamma   60.02557830
_symmetry_Int_Tables_number   1
_chemical_formula_structural   Gd2Al7N9
_chemical_formula_sum   'Gd8 Al28 N36'
_cell_volume   897.49923050
_cell_formula_units_Z   4
loop_
 _symmetry_equiv_pos_site_id
 _symmetry_equiv_pos_as_xyz
  1  'x, y, z'
loop_
 _atom_site_type_symbol
 _atom_site_label
 _atom_site_symmetry_multiplicity
 _atom_site_fract_x
 _atom_site_fract_y
 _atom_site_fract_z
 _atom_site_occupancy
  Al  Al0  1  0.11275079  0.10639346  0.29715045  1
  Al  Al1  1  0.22753387  0.20405226  0.05116953  1
  Al  Al2  1  0.76982225  0.09706943  0.88086689  1
  Al  Al3  1  0.44148512  0.09441103  0.27985978  1
  Al  Al4  1  0.54249013  0.21700641  0.05589821  1
  Al  Al5  1  0.11480959  0.08823367  0.81600751  1
  Al  Al6  1  0.89716624  0.20125058  0.04591381  1
  Al  Al7  1  0.44486131  0.09477460  0.81438361  1
  Al  Al8  1  0.12345759  0.42079891  0.28978662  1
  Al  Al9  1  0.23471215  0.53434953  0.05067612  1
  Al  Al10  1  0.77319979  0.42171451  0.86918263  1
  Al  Al11  1  0.88648395  0.54996670  0.63946599  1
  Al  Al12  1  0.43812691  0.42773011  0.28977218  1
  Al  Al13  1  0.56320882  0.53235115  0.12067279  1
  Al  Al14  1  0.12414829  0.42060888  0.80966051  1
  Al  Al15  1  0.21681706  0.54244359  0.54178684  1
  Al  Al16  1  0.78171129  0.45147895  0.37582731  1
  Al  Al17  1  0.44294562  0.41551487  0.80097089  1
  Al  Al18  1  0.54418527  0.54492992  0.62264887  1
  Al  Al19  1  0.11837493  0.74592393  0.30485219  1
  Al  Al20  1  0.21398302  0.87840722  0.06733144  1
  Al  Al21  1  0.77533663  0.78158813  0.81177902  1
  Al  Al22  1  0.89976620  0.85103873  0.53061958  1
  Al  Al23  1  0.44225935  0.76714174  0.28755111  1
  Al  Al24  1  0.55798463  0.88616444  0.05638436  1
  Al  Al25  1  0.21777307  0.86301855  0.53883604  1
  Al  Al26  1  0.78032588  0.75982235  0.28747679  1
  Al  Al27  1  0.89463323  0.87207518  0.05770298  1
  Gd  Gd28  1  0.86723984  0.21550399  0.59897875  1
  Gd  Gd29  1  0.20156235  0.20241199  0.55441601  1
  Gd  Gd30  1  0.79560210  0.09502653  0.31189354  1
  Gd  Gd31  1  0.53050180  0.20837065  0.54220890  1
  Gd  Gd32  1  0.89403153  0.54187870  0.07424671  1
  Gd  Gd33  1  0.10720409  0.76691278  0.78435535  1
  Gd  Gd34  1  0.44567025  0.75929133  0.83648704  1
  Gd  Gd35  1  0.57099424  0.84081988  0.54753109  1
  N  N36  1  0.23207461  0.20131135  0.33930942  1
  N  N37  1  0.10552555  0.10261480  0.11449179  1
  N  N38  1  0.89337181  0.19919230  0.85481419  1
  N  N39  1  0.78210647  0.06506942  0.54367091  1
  N  N40  1  0.53382655  0.21376061  0.32704725  1
  N  N41  1  0.44183332  0.09784801  0.10030145  1
  N  N42  1  0.21864780  0.20481735  0.86602718  1
  N  N43  1  0.11718552  0.04901579  0.64026462  1
  N  N44  1  0.91566771  0.22840707  0.37835938  1
  N  N45  1  0.77858786  0.09977755  0.07391079  1
  N  N46  1  0.54852456  0.20816185  0.86693119  1
  N  N47  1  0.43722636  0.07480035  0.63953942  1
  N  N48  1  0.22992698  0.52747972  0.35771108  1
  N  N49  1  0.15174156  0.40911538  0.11012031  1
  N  N50  1  0.88590327  0.53599280  0.83136085  1
  N  N51  1  0.74700706  0.49717937  0.55609984  1
  N  N52  1  0.56264812  0.53692179  0.30423982  1
  N  N53  1  0.44451482  0.43094812  0.10726407  1
  N  N54  1  0.23519514  0.51888733  0.87178006  1
  N  N55  1  0.10799590  0.44712048  0.62826140  1
  N  N56  1  0.89534874  0.53798801  0.30144678  1
  N  N57  1  0.76004263  0.41707720  0.04787171  1
  N  N58  1  0.57886561  0.49850586  0.80063036  1
  N  N59  1  0.41941491  0.44861855  0.61926337  1
  N  N60  1  0.22182289  0.87725359  0.34951240  1
  N  N61  1  0.11463653  0.75545633  0.11715741  1
  N  N62  1  0.87555244  0.88041897  0.87939850  1
  N  N63  1  0.80861652  0.76274352  0.63662558  1
  N  N64  1  0.55483917  0.87290700  0.33157150  1
  N  N65  1  0.44567567  0.76551562  0.09966945  1
  N  N66  1  0.19856839  0.89608640  0.89447741  1
  N  N67  1  0.11170325  0.75497340  0.56892606  1
  N  N68  1  0.90540179  0.83414823  0.35248191  1
  N  N69  1  0.76465859  0.79743722  0.11280990  1
  N  N70  1  0.57096542  0.88732391  0.87641386  1
  N  N71  1  0.41262951  0.75708716  0.61799673  1
