# generated using pymatgen
data_Gd2Al7N9
_symmetry_space_group_name_H-M   'P 1'
_cell_length_a   9.84309068
_cell_length_b   9.86619033
_cell_length_c   10.46640577
_cell_angle_alpha   89.55915444
_cell_angle_beta   89.82182198
_cell_angle_gamma   59.96042956
_symmetry_Int_Tables_number   1
_chemical_formula_structural   Gd2Al7N9
_chemical_formula_sum   'Gd8 Al28 N36'
_cell_volume   879.87879612
_cell_formula_units_Z   4
loop_
 _symmetry_equiv_pos_site_id
 _symmetry_equiv_pos_as_xyz
  1  'x, y, z'
loop_
 _atom_site_type_symbol
 _atom_site_label
 _atom_site_symmetry_multiplicity
 _atom_site_fract_x
 _atom_site_fract_y
 _atom_site_fract_z
 _atom_site_occupancy
  Al  Al0  1  0.11306658  0.09960020  0.28434651  1
  Al  Al1  1  0.22341580  0.20667110  0.04693493  1
  Al  Al2  1  0.77465121  0.08812428  0.81332978  1
  Al  Al3  1  0.43859715  0.09761465  0.27479099  1
  Al  Al4  1  0.55080726  0.21155843  0.03669168  1
  Al  Al5  1  0.11412231  0.09368046  0.81175073  1
  Al  Al6  1  0.88592381  0.20744664  0.03471946  1
  Al  Al7  1  0.44453033  0.09705945  0.81471326  1
  Al  Al8  1  0.11965729  0.42315109  0.29309692  1
  Al  Al9  1  0.22852213  0.53341645  0.05158049  1
  Al  Al10  1  0.77314352  0.43590607  0.79772838  1
  Al  Al11  1  0.89181240  0.54750445  0.55430574  1
  Al  Al12  1  0.43846586  0.42797800  0.29037828  1
  Al  Al13  1  0.55571454  0.52718206  0.05364412  1
  Al  Al14  1  0.11371091  0.42803256  0.79959645  1
  Al  Al15  1  0.22027919  0.54670142  0.53966311  1
  Al  Al16  1  0.77887484  0.42611707  0.30207927  1
  Al  Al17  1  0.44397641  0.42750282  0.80641016  1
  Al  Al18  1  0.54355637  0.54894970  0.54209398  1
  Al  Al19  1  0.11201757  0.75325844  0.30071780  1
  Al  Al20  1  0.21680707  0.87542165  0.06022617  1
  Al  Al21  1  0.78195701  0.76365435  0.79868510  1
  Al  Al22  1  0.90012371  0.85795621  0.54200019  1
  Al  Al23  1  0.44382773  0.75873746  0.28637722  1
  Al  Al24  1  0.55745811  0.87981992  0.05266623  1
  Al  Al25  1  0.22203904  0.86502047  0.52883122  1
  Al  Al26  1  0.77857993  0.76176708  0.29165518  1
  Al  Al27  1  0.88772623  0.87506295  0.04397331  1
  Gd  Gd28  1  0.89058718  0.20494148  0.57377255  1
  Gd  Gd29  1  0.21529751  0.20409300  0.54758922  1
  Gd  Gd30  1  0.78162748  0.09628601  0.28377795  1
  Gd  Gd31  1  0.55006973  0.21421420  0.56038339  1
  Gd  Gd32  1  0.88546199  0.53979030  0.05637720  1
  Gd  Gd33  1  0.10962693  0.76260772  0.78656763  1
  Gd  Gd34  1  0.44418280  0.76200971  0.80425537  1
  Gd  Gd35  1  0.56783352  0.86346470  0.53785998  1
  N  N36  1  0.22690561  0.20037629  0.33003931  1
  N  N37  1  0.10414625  0.10162196  0.10128230  1
  N  N38  1  0.88795775  0.21229380  0.84450293  1
  N  N39  1  0.79422961  0.05489598  0.62650204  1
  N  N40  1  0.52928055  0.21358368  0.34188474  1
  N  N41  1  0.44290540  0.09917310  0.09095349  1
  N  N42  1  0.21746226  0.20987614  0.85909789  1
  N  N43  1  0.13441848  0.04943456  0.63239582  1
  N  N44  1  0.91021896  0.21567813  0.35890005  1
  N  N45  1  0.77670681  0.09789564  0.06923382  1
  N  N46  1  0.55234707  0.21011222  0.85101227  1
  N  N47  1  0.44220821  0.08815276  0.63656162  1
  N  N48  1  0.22587632  0.53290705  0.35363428  1
  N  N49  1  0.13715681  0.41535084  0.11264590  1
  N  N50  1  0.88961956  0.53915818  0.84252350  1
  N  N51  1  0.75268920  0.47144262  0.61376033  1
  N  N52  1  0.55394721  0.53377537  0.35394436  1
  N  N53  1  0.44348246  0.42585347  0.10683523  1
  N  N54  1  0.23392784  0.51517131  0.87030203  1
  N  N55  1  0.10597678  0.45275004  0.61413148  1
  N  N56  1  0.88882128  0.54027971  0.35085763  1
  N  N57  1  0.76469894  0.40681453  0.11914002  1
  N  N58  1  0.57050758  0.50962329  0.87239229  1
  N  N59  1  0.42386472  0.46492860  0.62282230  1
  N  N60  1  0.21944797  0.87629196  0.33985635  1
  N  N61  1  0.10851515  0.75880655  0.11018591  1
  N  N62  1  0.87204515  0.87598099  0.86694035  1
  N  N63  1  0.81027408  0.74934243  0.61787070  1
  N  N64  1  0.55121796  0.87491092  0.32229055  1
  N  N65  1  0.44811259  0.75532282  0.09964507  1
  N  N66  1  0.20564122  0.89536360  0.88442767  1
  N  N67  1  0.11489278  0.76029108  0.56803698  1
  N  N68  1  0.89572807  0.84912849  0.35992552  1
  N  N69  1  0.76791517  0.79141267  0.11396964  1
  N  N70  1  0.57217384  0.88186215  0.86760321  1
  N  N71  1  0.42691350  0.75630421  0.58524651  1
