# generated using pymatgen
data_Gd2Al7N9
_symmetry_space_group_name_H-M   'P 1'
_cell_length_a   9.86371475
_cell_length_b   9.88253311
_cell_length_c   10.38165931
_cell_angle_alpha   89.85381993
_cell_angle_beta   90.01426286
_cell_angle_gamma   60.25014059
_symmetry_Int_Tables_number   1
_chemical_formula_structural   Gd2Al7N9
_chemical_formula_sum   'Gd8 Al28 N36'
_cell_volume   878.60420595
_cell_formula_units_Z   4
loop_
 _symmetry_equiv_pos_site_id
 _symmetry_equiv_pos_as_xyz
  1  'x, y, z'
loop_
 _atom_site_type_symbol
 _atom_site_label
 _atom_site_symmetry_multiplicity
 _atom_site_fract_x
 _atom_site_fract_y
 _atom_site_fract_z
 _atom_site_occupancy
  Al  Al0  1  0.11450452  0.09425045  0.38682127  1
  Al  Al1  1  0.22505067  0.20422112  0.15136364  1
  Al  Al2  1  0.78053683  0.08943491  0.92626542  1
  Al  Al3  1  0.43265900  0.11108515  0.37970445  1
  Al  Al4  1  0.54415229  0.21373008  0.13173098  1
  Al  Al5  1  0.11066400  0.09359129  0.91717407  1
  Al  Al6  1  0.88971071  0.20828003  0.14926083  1
  Al  Al7  1  0.44353029  0.08930217  0.92639979  1
  Al  Al8  1  0.10753315  0.43315279  0.39711866  1
  Al  Al9  1  0.22769120  0.53986409  0.15731297  1
  Al  Al10  1  0.77494732  0.41411224  0.90259959  1
  Al  Al11  1  0.89159075  0.54629523  0.64706044  1
  Al  Al12  1  0.43593120  0.43405153  0.39056007  1
  Al  Al13  1  0.55193852  0.53701980  0.15674614  1
  Al  Al14  1  0.12963456  0.41110903  0.90349753  1
  Al  Al15  1  0.22586764  0.53585871  0.63501049  1
  Al  Al16  1  0.77737223  0.43894330  0.39902597  1
  Al  Al17  1  0.44964197  0.41677523  0.91113748  1
  Al  Al18  1  0.55032067  0.53696733  0.63644609  1
  Al  Al19  1  0.11406425  0.75423771  0.40081727  1
  Al  Al20  1  0.22046946  0.87102394  0.15941719  1
  Al  Al21  1  0.76560906  0.78129668  0.89907537  1
  Al  Al22  1  0.89308109  0.86821916  0.64713604  1
  Al  Al23  1  0.44090041  0.75597340  0.38633489  1
  Al  Al24  1  0.55499601  0.87658058  0.16188000  1
  Al  Al25  1  0.21808826  0.86718374  0.63824714  1
  Al  Al26  1  0.79491507  0.74819078  0.40052354  1
  Al  Al27  1  0.89466812  0.86763590  0.15328034  1
  Gd  Gd28  1  0.89348486  0.20577733  0.65292729  1
  Gd  Gd29  1  0.22108136  0.20514779  0.64957420  1
  Gd  Gd30  1  0.76916383  0.09635153  0.37654891  1
  Gd  Gd31  1  0.55108413  0.21717705  0.67606249  1
  Gd  Gd32  1  0.88893313  0.54142348  0.13363971  1
  Gd  Gd33  1  0.11109771  0.74656965  0.88649806  1
  Gd  Gd34  1  0.44985902  0.75068329  0.89541449  1
  Gd  Gd35  1  0.55942419  0.87017922  0.62184886  1
  N  N36  1  0.21442695  0.21294835  0.33768681  1
  N  N37  1  0.11321559  0.09099402  0.10281137  1
  N  N38  1  0.89309337  0.19622782  0.87413517  1
  N  N39  1  0.78441964  0.07416852  0.59205233  1
  N  N40  1  0.51801455  0.23259446  0.31598971  1
  N  N41  1  0.44033064  0.08749423  0.10894361  1
  N  N42  1  0.22625927  0.19519648  0.87198770  1
  N  N43  1  0.12522213  0.06589676  0.56536798  1
  N  N44  1  0.89939055  0.22741003  0.33534470  1
  N  N45  1  0.78567047  0.08889596  0.11487126  1
  N  N46  1  0.55877153  0.19716311  0.90601811  1
  N  N47  1  0.44469716  0.11405406  0.55873130  1
  N  N48  1  0.21928859  0.54166390  0.34169228  1
  N  N49  1  0.14572890  0.41550709  0.08647279  1
  N  N50  1  0.89051931  0.53826534  0.84987188  1
  N  N51  1  0.76350018  0.46149521  0.58333320  1
  N  N52  1  0.55791007  0.53604902  0.33982588  1
  N  N53  1  0.43561170  0.44553842  0.09217941  1
  N  N54  1  0.25387785  0.48759098  0.81971888  1
  N  N55  1  0.09923851  0.45009877  0.58034040  1
  N  N56  1  0.88996548  0.53933534  0.34874401  1
  N  N57  1  0.75602442  0.41791626  0.08454528  1
  N  N58  1  0.57287616  0.49173014  0.82212624  1
  N  N59  1  0.43489128  0.44563107  0.57103870  1
  N  N60  1  0.21938199  0.86946231  0.34179472  1
  N  N61  1  0.11357279  0.75975558  0.10432925  1
  N  N62  1  0.86167188  0.89160794  0.83519327  1
  N  N63  1  0.81137762  0.74801713  0.58326382  1
  N  N64  1  0.56173023  0.86963707  0.35175995  1
  N  N65  1  0.44575121  0.76214450  0.11836830  1
  N  N66  1  0.20466909  0.90081315  0.82515871  1
  N  N67  1  0.11052004  0.75685969  0.59721911  1
  N  N68  1  0.90773417  0.83899454  0.33361751  1
  N  N69  1  0.75999089  0.79638434  0.08329589  1
  N  N70  1  0.55656594  0.89311784  0.84364765  1
  N  N71  1  0.42700238  0.74603779  0.58913252  1
