# generated using pymatgen
data_Gd2Al7N9
_symmetry_space_group_name_H-M   'P 1'
_cell_length_a   9.85309670
_cell_length_b   9.89660826
_cell_length_c   10.55917923
_cell_angle_alpha   88.92264275
_cell_angle_beta   89.60197298
_cell_angle_gamma   60.07595381
_symmetry_Int_Tables_number   1
_chemical_formula_structural   Gd2Al7N9
_chemical_formula_sum   'Gd8 Al28 N36'
_cell_volume   892.22278340
_cell_formula_units_Z   4
loop_
 _symmetry_equiv_pos_site_id
 _symmetry_equiv_pos_as_xyz
  1  'x, y, z'
loop_
 _atom_site_type_symbol
 _atom_site_label
 _atom_site_symmetry_multiplicity
 _atom_site_fract_x
 _atom_site_fract_y
 _atom_site_fract_z
 _atom_site_occupancy
  Al  Al0  1  0.11475628  0.09966036  0.29299296  1
  Al  Al1  1  0.22736462  0.20204243  0.05210783  1
  Al  Al2  1  0.76641138  0.10220658  0.88107640  1
  Al  Al3  1  0.43985095  0.09331676  0.27977936  1
  Al  Al4  1  0.54077312  0.21742940  0.05717858  1
  Al  Al5  1  0.11289959  0.09043099  0.81816832  1
  Al  Al6  1  0.89488755  0.20445138  0.04823766  1
  Al  Al7  1  0.44503667  0.09729151  0.81827757  1
  Al  Al8  1  0.12470792  0.41829978  0.29220016  1
  Al  Al9  1  0.23283576  0.53327814  0.05423541  1
  Al  Al10  1  0.76849461  0.43102612  0.84569653  1
  Al  Al11  1  0.89007510  0.54820722  0.64721697  1
  Al  Al12  1  0.44138057  0.42836485  0.29281185  1
  Al  Al13  1  0.54927182  0.53587710  0.05205113  1
  Al  Al14  1  0.12749047  0.42037537  0.81334342  1
  Al  Al15  1  0.21935866  0.54507687  0.54651074  1
  Al  Al16  1  0.78609707  0.43253790  0.33272084  1
  Al  Al17  1  0.44180095  0.42958684  0.80743279  1
  Al  Al18  1  0.54293557  0.55119886  0.54802814  1
  Al  Al19  1  0.11777539  0.74423280  0.30247907  1
  Al  Al20  1  0.21987542  0.87274674  0.06574155  1
  Al  Al21  1  0.77344902  0.78335410  0.81442304  1
  Al  Al22  1  0.90408020  0.84826464  0.53226505  1
  Al  Al23  1  0.44527360  0.75843532  0.29272364  1
  Al  Al24  1  0.55504697  0.87986655  0.05725541  1
  Al  Al25  1  0.21796050  0.86520492  0.53128958  1
  Al  Al26  1  0.78104634  0.75580953  0.28563631  1
  Al  Al27  1  0.89192295  0.87260364  0.05702488  1
  Gd  Gd28  1  0.87494765  0.20847519  0.59169559  1
  Gd  Gd29  1  0.20496442  0.20336471  0.55664950  1
  Gd  Gd30  1  0.78990427  0.08857272  0.31037003  1
  Gd  Gd31  1  0.53051839  0.21818320  0.54949547  1
  Gd  Gd32  1  0.89541724  0.53976534  0.06910447  1
  Gd  Gd33  1  0.10305512  0.76747538  0.78931155  1
  Gd  Gd34  1  0.43810131  0.77211818  0.79908521  1
  Gd  Gd35  1  0.58039332  0.85499981  0.54078402  1
  N  N36  1  0.23059408  0.19702933  0.33999290  1
  N  N37  1  0.10768178  0.09873018  0.11025925  1
  N  N38  1  0.88781126  0.20623672  0.85365190  1
  N  N39  1  0.77898840  0.06199396  0.54345126  1
  N  N40  1  0.52937102  0.21355779  0.33190116  1
  N  N41  1  0.44216884  0.09537827  0.09885831  1
  N  N42  1  0.21851898  0.20513634  0.86635535  1
  N  N43  1  0.12486978  0.04525090  0.64094059  1
  N  N44  1  0.91413088  0.22102386  0.36947403  1
  N  N45  1  0.77668715  0.10017970  0.07409526  1
  N  N46  1  0.54609842  0.21464334  0.86569752  1
  N  N47  1  0.43928418  0.07920831  0.64140760  1
  N  N48  1  0.23136148  0.52627583  0.36068740  1
  N  N49  1  0.15253706  0.40614845  0.11293533  1
  N  N50  1  0.89050761  0.53935071  0.83858487  1
  N  N51  1  0.74996064  0.47814204  0.61345164  1
  N  N52  1  0.55856646  0.53213632  0.35784988  1
  N  N53  1  0.44373446  0.43198632  0.11246463  1
  N  N54  1  0.23394718  0.51963316  0.87506490  1
  N  N55  1  0.11215774  0.44790378  0.63142036  1
  N  N56  1  0.89602731  0.53553943  0.30606563  1
  N  N57  1  0.76568708  0.41342792  0.07479097  1
  N  N58  1  0.55252521  0.52397959  0.87158635  1
  N  N59  1  0.42648344  0.46267153  0.62565847  1
  N  N60  1  0.21786385  0.87486864  0.34403387  1
  N  N61  1  0.11256323  0.75444103  0.11458546  1
  N  N62  1  0.87056162  0.88647320  0.87856264  1
  N  N63  1  0.81475072  0.75957339  0.63897612  1
  N  N64  1  0.55637323  0.87068515  0.32666621  1
  N  N65  1  0.44694984  0.75688802  0.10715302  1
  N  N66  1  0.20527307  0.89327196  0.89106758  1
  N  N67  1  0.11442075  0.75735342  0.57252803  1
  N  N68  1  0.90662971  0.82835779  0.35347800  1
  N  N69  1  0.76401867  0.79523146  0.11076997  1
  N  N70  1  0.56728545  0.88549882  0.87556863  1
  N  N71  1  0.42479971  0.76043012  0.58202138  1
