# generated using pymatgen
data_Gd2Al7N9
_symmetry_space_group_name_H-M   'P 1'
_cell_length_a   9.90307040
_cell_length_b   9.92225456
_cell_length_c   10.49345415
_cell_angle_alpha   88.92217419
_cell_angle_beta   89.95960073
_cell_angle_gamma   60.06305231
_symmetry_Int_Tables_number   1
_chemical_formula_structural   Gd2Al7N9
_chemical_formula_sum   'Gd8 Al28 N36'
_cell_volume   893.31835976
_cell_formula_units_Z   4
loop_
 _symmetry_equiv_pos_site_id
 _symmetry_equiv_pos_as_xyz
  1  'x, y, z'
loop_
 _atom_site_type_symbol
 _atom_site_label
 _atom_site_symmetry_multiplicity
 _atom_site_fract_x
 _atom_site_fract_y
 _atom_site_fract_z
 _atom_site_occupancy
  Al  Al0  1  0.11089803  0.10011120  0.38780167  1
  Al  Al1  1  0.22032609  0.21273689  0.15676690  1
  Al  Al2  1  0.77437109  0.10640662  0.93841368  1
  Al  Al3  1  0.42763789  0.11426535  0.38210943  1
  Al  Al4  1  0.53781745  0.21974801  0.13350051  1
  Al  Al5  1  0.10548369  0.10901998  0.93152924  1
  Al  Al6  1  0.88619589  0.21831565  0.16104066  1
  Al  Al7  1  0.44324578  0.09264488  0.92644671  1
  Al  Al8  1  0.10053795  0.43531700  0.39759330  1
  Al  Al9  1  0.22578192  0.53997616  0.15570410  1
  Al  Al10  1  0.77721448  0.40865441  0.90302565  1
  Al  Al11  1  0.90036282  0.53642221  0.66069682  1
  Al  Al12  1  0.43568599  0.43065273  0.39373627  1
  Al  Al13  1  0.55296357  0.53008076  0.15258004  1
  Al  Al14  1  0.13300221  0.41010371  0.90297116  1
  Al  Al15  1  0.23099292  0.52708492  0.63618532  1
  Al  Al16  1  0.77363958  0.44692458  0.39941985  1
  Al  Al17  1  0.44781454  0.41935234  0.90883436  1
  Al  Al18  1  0.54865262  0.53192524  0.64660981  1
  Al  Al19  1  0.11839819  0.74380905  0.37945538  1
  Al  Al20  1  0.21535709  0.87658431  0.10339859  1
  Al  Al21  1  0.77034338  0.79580571  0.83100250  1
  Al  Al22  1  0.90857170  0.84832536  0.57235734  1
  Al  Al23  1  0.43642633  0.75576446  0.32399246  1
  Al  Al24  1  0.54341214  0.88926217  0.16253482  1
  Al  Al25  1  0.23237436  0.85125358  0.56520640  1
  Al  Al26  1  0.78451494  0.75582935  0.32678115  1
  Al  Al27  1  0.88630623  0.87887149  0.10368508  1
  Gd  Gd28  1  0.89112815  0.20722179  0.64949934  1
  Gd  Gd29  1  0.23294767  0.19065508  0.65149446  1
  Gd  Gd30  1  0.76485963  0.10005958  0.37148979  1
  Gd  Gd31  1  0.56314057  0.19139620  0.67822320  1
  Gd  Gd32  1  0.88551692  0.54753348  0.10875541  1
  Gd  Gd33  1  0.10791172  0.75985872  0.86495727  1
  Gd  Gd34  1  0.45922074  0.75568067  0.86983782  1
  Gd  Gd35  1  0.57686020  0.83836411  0.58223332  1
  N  N36  1  0.21212850  0.21559130  0.34086047  1
  N  N37  1  0.10293659  0.10983973  0.11622295  1
  N  N38  1  0.89638221  0.19327671  0.87152161  1
  N  N39  1  0.79409224  0.06489194  0.59285687  1
  N  N40  1  0.51260648  0.23296290  0.31612702  1
  N  N41  1  0.43395057  0.09469483  0.10744815  1
  N  N42  1  0.22591183  0.19686439  0.87137583  1
  N  N43  1  0.12382087  0.06730996  0.56887072  1
  N  N44  1  0.89475096  0.23247597  0.34495659  1
  N  N45  1  0.78012096  0.10291974  0.12602238  1
  N  N46  1  0.55737306  0.20139643  0.90827383  1
  N  N47  1  0.45574666  0.09466482  0.55685444  1
  N  N48  1  0.22103621  0.53310929  0.33945603  1
  N  N49  1  0.14572719  0.41780119  0.08523867  1
  N  N50  1  0.89706248  0.52083502  0.85778210  1
  N  N51  1  0.75700880  0.47610669  0.58305840  1
  N  N52  1  0.55591821  0.53195196  0.33656957  1
  N  N53  1  0.43223118  0.44765858  0.08961144  1
  N  N54  1  0.25035287  0.49259710  0.82139188  1
  N  N55  1  0.10015196  0.44334481  0.58118066  1
  N  N56  1  0.88803925  0.53946275  0.33732120  1
  N  N57  1  0.75407477  0.41914935  0.08407153  1
  N  N58  1  0.57907405  0.48381082  0.82686158  1
  N  N59  1  0.44313836  0.43361520  0.57450164  1
  N  N60  1  0.22475296  0.86310626  0.37250425  1
  N  N61  1  0.10770413  0.76008799  0.11992145  1
  N  N62  1  0.86102170  0.89098153  0.91802512  1
  N  N63  1  0.82242986  0.74919154  0.66093812  1
  N  N64  1  0.54840368  0.87135566  0.35114665  1
  N  N65  1  0.44384836  0.76362691  0.13602521  1
  N  N66  1  0.21436940  0.89573255  0.92090843  1
  N  N67  1  0.12521804  0.74320144  0.59239265  1
  N  N68  1  0.90167608  0.83742800  0.38962671  1
  N  N69  1  0.75713249  0.80136779  0.15035785  1
  N  N70  1  0.55545225  0.91132174  0.83117063  1
  N  N71  1  0.42153907  0.74870351  0.64862591  1
