# generated using pymatgen
data_Gd2Al7N9
_symmetry_space_group_name_H-M   'P 1'
_cell_length_a   9.80935363
_cell_length_b   9.90714277
_cell_length_c   10.67534162
_cell_angle_alpha   89.59328494
_cell_angle_beta   89.43309256
_cell_angle_gamma   59.95553071
_symmetry_Int_Tables_number   1
_chemical_formula_structural   Gd2Al7N9
_chemical_formula_sum   'Gd8 Al28 N36'
_cell_volume   898.01553847
_cell_formula_units_Z   4
loop_
 _symmetry_equiv_pos_site_id
 _symmetry_equiv_pos_as_xyz
  1  'x, y, z'
loop_
 _atom_site_type_symbol
 _atom_site_label
 _atom_site_symmetry_multiplicity
 _atom_site_fract_x
 _atom_site_fract_y
 _atom_site_fract_z
 _atom_site_occupancy
  Al  Al0  1  0.11161631  0.10792406  0.30950397  1
  Al  Al1  1  0.22855278  0.20420917  0.06462412  1
  Al  Al2  1  0.76428292  0.09475318  0.90049615  1
  Al  Al3  1  0.43896563  0.09484452  0.29732850  1
  Al  Al4  1  0.54543113  0.21899456  0.12932908  1
  Al  Al5  1  0.11646632  0.08503085  0.82810396  1
  Al  Al6  1  0.89535237  0.20166830  0.05960481  1
  Al  Al7  1  0.43926511  0.08656724  0.82869999  1
  Al  Al8  1  0.12248581  0.42352200  0.29846561  1
  Al  Al9  1  0.22954895  0.53806376  0.06521038  1
  Al  Al10  1  0.77450717  0.41490478  0.87838774  1
  Al  Al11  1  0.88792256  0.55184131  0.65160080  1
  Al  Al12  1  0.44546431  0.43547741  0.37086248  1
  Al  Al13  1  0.56057211  0.52886815  0.13505892  1
  Al  Al14  1  0.12685765  0.41859721  0.82045452  1
  Al  Al15  1  0.21311287  0.54641384  0.54374594  1
  Al  Al16  1  0.78304474  0.45346874  0.38858131  1
  Al  Al17  1  0.45850793  0.40545213  0.89054938  1
  Al  Al18  1  0.54121908  0.54257642  0.62748513  1
  Al  Al19  1  0.11562423  0.74849976  0.31391872  1
  Al  Al20  1  0.21333773  0.88025985  0.07889612  1
  Al  Al21  1  0.77388378  0.78125107  0.82561400  1
  Al  Al22  1  0.89967655  0.85092588  0.54435184  1
  Al  Al23  1  0.44022129  0.76957831  0.29874103  1
  Al  Al24  1  0.55614362  0.88682708  0.06942286  1
  Al  Al25  1  0.21742341  0.86355808  0.55498570  1
  Al  Al26  1  0.77811687  0.76078088  0.30034302  1
  Al  Al27  1  0.89198820  0.87350163  0.07363077  1
  Gd  Gd28  1  0.86814501  0.22002673  0.61343793  1
  Gd  Gd29  1  0.20278285  0.20486522  0.56184780  1
  Gd  Gd30  1  0.79397881  0.09626233  0.33912266  1
  Gd  Gd31  1  0.54802474  0.21061651  0.62888817  1
  Gd  Gd32  1  0.89219487  0.54271186  0.08473324  1
  Gd  Gd33  1  0.10690605  0.76474114  0.79876220  1
  Gd  Gd34  1  0.45234307  0.74260329  0.85525042  1
  Gd  Gd35  1  0.56939119  0.83755183  0.56226531  1
  N  N36  1  0.22867072  0.20568267  0.34948429  1
  N  N37  1  0.10420990  0.10356418  0.12764505  1
  N  N38  1  0.89463419  0.19254944  0.87070339  1
  N  N39  1  0.78460477  0.06604004  0.55550029  1
  N  N40  1  0.53042560  0.22654535  0.31080970  1
  N  N41  1  0.44127943  0.09673937  0.11567743  1
  N  N42  1  0.21720046  0.20429585  0.87994872  1
  N  N43  1  0.11670807  0.05337124  0.65193851  1
  N  N44  1  0.91613651  0.23127016  0.39426119  1
  N  N45  1  0.77585559  0.10120788  0.09101610  1
  N  N46  1  0.55502935  0.19454346  0.84768405  1
  N  N47  1  0.43280564  0.07296555  0.64979530  1
  N  N48  1  0.21945323  0.53502750  0.36177998  1
  N  N49  1  0.15116114  0.41026279  0.12090966  1
  N  N50  1  0.88451504  0.53322193  0.84044429  1
  N  N51  1  0.74672791  0.50291840  0.56722766  1
  N  N52  1  0.56174127  0.53853340  0.31412122  1
  N  N53  1  0.45383302  0.43001331  0.07155198  1
  N  N54  1  0.23283223  0.51909994  0.88390698  1
  N  N55  1  0.11281312  0.44867542  0.63980038  1
  N  N56  1  0.89344964  0.53917306  0.31058715  1
  N  N57  1  0.75784720  0.41905115  0.05690412  1
  N  N58  1  0.58100167  0.47623438  0.80121983  1
  N  N59  1  0.43730981  0.45251557  0.54793068  1
  N  N60  1  0.22053201  0.87877299  0.36429073  1
  N  N61  1  0.11329278  0.75825126  0.12888654  1
  N  N62  1  0.87452583  0.87776676  0.89658386  1
  N  N63  1  0.80721504  0.76562370  0.65102353  1
  N  N64  1  0.55238288  0.87453618  0.34720335  1
  N  N65  1  0.44417155  0.76519993  0.11325620  1
  N  N66  1  0.20356941  0.89282575  0.90593194  1
  N  N67  1  0.11127063  0.75532051  0.58468485  1
  N  N68  1  0.90344641  0.83426302  0.36639271  1
  N  N69  1  0.76229075  0.79798393  0.12671331  1
  N  N70  1  0.56792380  0.88179396  0.88930685  1
  N  N71  1  0.40971771  0.75531857  0.64059045  1
