# generated using pymatgen
data_Gd2Al7N9
_symmetry_space_group_name_H-M   'P 1'
_cell_length_a   9.84248784
_cell_length_b   9.86575786
_cell_length_c   10.49670819
_cell_angle_alpha   89.51167937
_cell_angle_beta   89.72190043
_cell_angle_gamma   59.95928375
_symmetry_Int_Tables_number   1
_chemical_formula_structural   Gd2Al7N9
_chemical_formula_sum   'Gd8 Al28 N36'
_cell_volume   882.31749615
_cell_formula_units_Z   4
loop_
 _symmetry_equiv_pos_site_id
 _symmetry_equiv_pos_as_xyz
  1  'x, y, z'
loop_
 _atom_site_type_symbol
 _atom_site_label
 _atom_site_symmetry_multiplicity
 _atom_site_fract_x
 _atom_site_fract_y
 _atom_site_fract_z
 _atom_site_occupancy
  Al  Al0  1  0.11233230  0.09907785  0.28803894  1
  Al  Al1  1  0.22430401  0.20530291  0.05149054  1
  Al  Al2  1  0.77554699  0.08903267  0.81668186  1
  Al  Al3  1  0.43755802  0.09766488  0.27907414  1
  Al  Al4  1  0.55096330  0.21117890  0.04100774  1
  Al  Al5  1  0.11435389  0.09335137  0.81508268  1
  Al  Al6  1  0.88609259  0.20640520  0.03966359  1
  Al  Al7  1  0.44519738  0.09622439  0.81850831  1
  Al  Al8  1  0.11601804  0.42398882  0.29487311  1
  Al  Al9  1  0.22941622  0.53284309  0.05660050  1
  Al  Al10  1  0.77184702  0.43347807  0.80615774  1
  Al  Al11  1  0.89239644  0.54757335  0.59270488  1
  Al  Al12  1  0.43775289  0.42738375  0.29541861  1
  Al  Al13  1  0.55476824  0.52718529  0.05801780  1
  Al  Al14  1  0.11826903  0.42513340  0.80851412  1
  Al  Al15  1  0.22028554  0.54732879  0.54362812  1
  Al  Al16  1  0.77944147  0.42621741  0.30256567  1
  Al  Al17  1  0.44421430  0.42738052  0.81071614  1
  Al  Al18  1  0.54279996  0.54965167  0.54575477  1
  Al  Al19  1  0.11129567  0.75286155  0.30507221  1
  Al  Al20  1  0.21706330  0.87485503  0.06336155  1
  Al  Al21  1  0.77964250  0.76843103  0.80767720  1
  Al  Al22  1  0.90066269  0.85881629  0.54641973  1
  Al  Al23  1  0.44334253  0.75850695  0.29036817  1
  Al  Al24  1  0.55672689  0.88016991  0.05804525  1
  Al  Al25  1  0.22193951  0.86602849  0.53258795  1
  Al  Al26  1  0.77968520  0.75910713  0.29324460  1
  Al  Al27  1  0.88765495  0.87614083  0.04857211  1
  Gd  Gd28  1  0.89035499  0.20731682  0.57537660  1
  Gd  Gd29  1  0.21663337  0.20526949  0.55056672  1
  Gd  Gd30  1  0.77991796  0.09533354  0.28860822  1
  Gd  Gd31  1  0.55042500  0.21395192  0.56551691  1
  Gd  Gd32  1  0.88585749  0.53967701  0.06216193  1
  Gd  Gd33  1  0.10992553  0.76120095  0.79089583  1
  Gd  Gd34  1  0.44513918  0.76184030  0.80706574  1
  Gd  Gd35  1  0.57081921  0.86163933  0.53962711  1
  N  N36  1  0.22547494  0.20044181  0.33352035  1
  N  N37  1  0.10456288  0.10048197  0.10516970  1
  N  N38  1  0.88856374  0.21117948  0.84982726  1
  N  N39  1  0.79544186  0.05665562  0.63019532  1
  N  N40  1  0.52768891  0.21332638  0.34809022  1
  N  N41  1  0.44305300  0.09923656  0.09589491  1
  N  N42  1  0.21899319  0.20787696  0.86411983  1
  N  N43  1  0.13384466  0.05215848  0.63511727  1
  N  N44  1  0.90837729  0.21538406  0.36118348  1
  N  N45  1  0.77616108  0.09815231  0.07486120  1
  N  N46  1  0.55284555  0.20974218  0.85494118  1
  N  N47  1  0.44364834  0.08554035  0.64040060  1
  N  N48  1  0.22456880  0.53233840  0.35825001  1
  N  N49  1  0.13874451  0.41386182  0.11452438  1
  N  N50  1  0.89004856  0.53892215  0.84356819  1
  N  N51  1  0.75030665  0.47224019  0.62312694  1
  N  N52  1  0.55429656  0.53293511  0.35832178  1
  N  N53  1  0.44370604  0.42513134  0.11225989  1
  N  N54  1  0.23551402  0.51493838  0.87604677  1
  N  N55  1  0.10969626  0.45192386  0.62404658  1
  N  N56  1  0.88905467  0.53884049  0.33698924  1
  N  N57  1  0.76387673  0.40630641  0.12019947  1
  N  N58  1  0.56861214  0.51033660  0.87739028  1
  N  N59  1  0.42379155  0.46543699  0.62724403  1
  N  N60  1  0.21876568  0.87595776  0.34434755  1
  N  N61  1  0.10845281  0.75868602  0.11466166  1
  N  N62  1  0.87270987  0.87812368  0.87215672  1
  N  N63  1  0.80916891  0.75482906  0.62801918  1
  N  N64  1  0.55107150  0.87445197  0.32494366  1
  N  N65  1  0.44747572  0.75506215  0.10409365  1
  N  N66  1  0.20635854  0.89444899  0.88728511  1
  N  N67  1  0.11523676  0.76075917  0.57283777  1
  N  N68  1  0.89468765  0.84794716  0.36521779  1
  N  N69  1  0.76737942  0.79281267  0.11608075  1
  N  N70  1  0.57090420  0.88255144  0.87368530  1
  N  N71  1  0.42739239  0.75744769  0.58820927  1
