# generated using pymatgen
data_Gd2Al7N9
_symmetry_space_group_name_H-M   'P 1'
_cell_length_a   9.86901708
_cell_length_b   9.88931575
_cell_length_c   10.38037154
_cell_angle_alpha   89.90765923
_cell_angle_beta   90.07713045
_cell_angle_gamma   60.29130187
_symmetry_Int_Tables_number   1
_chemical_formula_structural   Gd2Al7N9
_chemical_formula_sum   'Gd8 Al28 N36'
_cell_volume   879.93202303
_cell_formula_units_Z   4
loop_
 _symmetry_equiv_pos_site_id
 _symmetry_equiv_pos_as_xyz
  1  'x, y, z'
loop_
 _atom_site_type_symbol
 _atom_site_label
 _atom_site_symmetry_multiplicity
 _atom_site_fract_x
 _atom_site_fract_y
 _atom_site_fract_z
 _atom_site_occupancy
  Al  Al0  1  0.11476538  0.09422175  0.38741528  1
  Al  Al1  1  0.22490151  0.20450899  0.15124478  1
  Al  Al2  1  0.78060011  0.08947786  0.92598567  1
  Al  Al3  1  0.43203691  0.11274416  0.37966353  1
  Al  Al4  1  0.54418167  0.21370717  0.13117847  1
  Al  Al5  1  0.10942165  0.09461471  0.91776576  1
  Al  Al6  1  0.88976842  0.20827346  0.14978519  1
  Al  Al7  1  0.44334846  0.08924266  0.92566551  1
  Al  Al8  1  0.10762501  0.43319145  0.39730794  1
  Al  Al9  1  0.22773135  0.53975343  0.15747957  1
  Al  Al10  1  0.77514207  0.41351194  0.90294821  1
  Al  Al11  1  0.89165117  0.54622725  0.64715741  1
  Al  Al12  1  0.43596579  0.43435092  0.39081469  1
  Al  Al13  1  0.55359532  0.53406314  0.15507128  1
  Al  Al14  1  0.12977876  0.41105390  0.90332944  1
  Al  Al15  1  0.22642871  0.53602083  0.63493199  1
  Al  Al16  1  0.77764873  0.43887701  0.39954377  1
  Al  Al17  1  0.45000148  0.41598953  0.91108205  1
  Al  Al18  1  0.55094268  0.53574433  0.63954272  1
  Al  Al19  1  0.11456732  0.75418453  0.40145880  1
  Al  Al20  1  0.21728484  0.87280038  0.15772157  1
  Al  Al21  1  0.76497744  0.78168423  0.89804182  1
  Al  Al22  1  0.89271381  0.86828662  0.64699190  1
  Al  Al23  1  0.44354327  0.75766160  0.36020924  1
  Al  Al24  1  0.55678776  0.87820766  0.15959327  1
  Al  Al25  1  0.21674953  0.86761287  0.64174863  1
  Al  Al26  1  0.79657578  0.74746797  0.40075908  1
  Al  Al27  1  0.89461002  0.86788635  0.15327296  1
  Gd  Gd28  1  0.89373555  0.20567362  0.65305884  1
  Gd  Gd29  1  0.22124071  0.20512659  0.64966343  1
  Gd  Gd30  1  0.76903394  0.09638268  0.37668218  1
  Gd  Gd31  1  0.55117666  0.21681570  0.67595882  1
  Gd  Gd32  1  0.88910767  0.54172694  0.13322512  1
  Gd  Gd33  1  0.11002496  0.74599312  0.88680468  1
  Gd  Gd34  1  0.44823991  0.75107147  0.88968421  1
  Gd  Gd35  1  0.55829553  0.86910195  0.61843750  1
  N  N36  1  0.21432857  0.21305754  0.33755281  1
  N  N37  1  0.11263666  0.09180370  0.10322652  1
  N  N38  1  0.89275162  0.19655221  0.87425274  1
  N  N39  1  0.78444883  0.07421656  0.59201526  1
  N  N40  1  0.51804574  0.23305662  0.31556022  1
  N  N41  1  0.43994936  0.08803420  0.10845016  1
  N  N42  1  0.22585829  0.19534995  0.87221965  1
  N  N43  1  0.12587777  0.06495380  0.56580894  1
  N  N44  1  0.89951867  0.22719147  0.33592271  1
  N  N45  1  0.78585746  0.08885416  0.11494043  1
  N  N46  1  0.55880793  0.19666159  0.90637634  1
  N  N47  1  0.44396026  0.11495487  0.55824590  1
  N  N48  1  0.21942695  0.54183185  0.34178489  1
  N  N49  1  0.14569238  0.41559453  0.08655885  1
  N  N50  1  0.89067041  0.53831203  0.85006060  1
  N  N51  1  0.76342636  0.46132076  0.58346665  1
  N  N52  1  0.55871812  0.53525404  0.33873817  1
  N  N53  1  0.43531153  0.44526238  0.09204733  1
  N  N54  1  0.25437721  0.48707574  0.81954954  1
  N  N55  1  0.09942006  0.45004441  0.58037670  1
  N  N56  1  0.89005973  0.53921870  0.34851496  1
  N  N57  1  0.75716837  0.41725862  0.08497980  1
  N  N58  1  0.57470543  0.48837528  0.82433254  1
  N  N59  1  0.43558595  0.44553218  0.57081886  1
  N  N60  1  0.21944984  0.86969652  0.34095209  1
  N  N61  1  0.11312453  0.75958399  0.10449602  1
  N  N62  1  0.86127984  0.89185543  0.83498767  1
  N  N63  1  0.81168979  0.74747384  0.58325885  1
  N  N64  1  0.56278417  0.87030634  0.35022829  1
  N  N65  1  0.44608886  0.76201113  0.12436845  1
  N  N66  1  0.19994482  0.90275080  0.82878564  1
  N  N67  1  0.11010860  0.75714938  0.59694488  1
  N  N68  1  0.90818788  0.83905718  0.33360866  1
  N  N69  1  0.76042934  0.79657461  0.08261748  1
  N  N70  1  0.55623211  0.89357239  0.84291664  1
  N  N71  1  0.42698663  0.74533563  0.61485747  1
