# generated using pymatgen
data_Gd2Al7N9
_symmetry_space_group_name_H-M   'P 1'
_cell_length_a   9.85789563
_cell_length_b   9.87096392
_cell_length_c   10.40852233
_cell_angle_alpha   89.71923838
_cell_angle_beta   89.87190966
_cell_angle_gamma   60.11922886
_symmetry_Int_Tables_number   1
_chemical_formula_structural   Gd2Al7N9
_chemical_formula_sum   'Gd8 Al28 N36'
_cell_volume   878.17038056
_cell_formula_units_Z   4
loop_
 _symmetry_equiv_pos_site_id
 _symmetry_equiv_pos_as_xyz
  1  'x, y, z'
loop_
 _atom_site_type_symbol
 _atom_site_label
 _atom_site_symmetry_multiplicity
 _atom_site_fract_x
 _atom_site_fract_y
 _atom_site_fract_z
 _atom_site_occupancy
  Al  Al0  1  0.11372349  0.09487783  0.38610888  1
  Al  Al1  1  0.22554041  0.20394323  0.15160491  1
  Al  Al2  1  0.78058470  0.08952829  0.92638015  1
  Al  Al3  1  0.43338253  0.10878735  0.38065152  1
  Al  Al4  1  0.54432608  0.21356680  0.13314453  1
  Al  Al5  1  0.11261866  0.09303142  0.91643147  1
  Al  Al6  1  0.88949033  0.20826754  0.14790148  1
  Al  Al7  1  0.44447764  0.08945849  0.92717972  1
  Al  Al8  1  0.10747806  0.43303776  0.39725776  1
  Al  Al9  1  0.22740534  0.54002335  0.15696072  1
  Al  Al10  1  0.77507756  0.41477121  0.90204085  1
  Al  Al11  1  0.89139796  0.54648049  0.64661083  1
  Al  Al12  1  0.43540857  0.43358541  0.39062722  1
  Al  Al13  1  0.55108375  0.53776735  0.15798146  1
  Al  Al14  1  0.12938796  0.41178481  0.90363355  1
  Al  Al15  1  0.22500605  0.53617271  0.63546861  1
  Al  Al16  1  0.77687919  0.43909734  0.39874007  1
  Al  Al17  1  0.44981161  0.41736710  0.91092569  1
  Al  Al18  1  0.54935224  0.53760552  0.63440436  1
  Al  Al19  1  0.11311219  0.75425518  0.40030730  1
  Al  Al20  1  0.22121445  0.87064928  0.16066881  1
  Al  Al21  1  0.76744548  0.78002077  0.90037645  1
  Al  Al22  1  0.89299909  0.86830522  0.64753249  1
  Al  Al23  1  0.43922121  0.75534022  0.39279670  1
  Al  Al24  1  0.55452916  0.87580546  0.16358064  1
  Al  Al25  1  0.21864836  0.86722949  0.63524685  1
  Al  Al26  1  0.79272213  0.74938773  0.40078286  1
  Al  Al27  1  0.89460727  0.86735964  0.15345799  1
  Gd  Gd28  1  0.89268690  0.20622191  0.65372356  1
  Gd  Gd29  1  0.22065576  0.20450807  0.64988311  1
  Gd  Gd30  1  0.76970631  0.09675810  0.37704271  1
  Gd  Gd31  1  0.55023129  0.21696028  0.67601048  1
  Gd  Gd32  1  0.88895813  0.54020757  0.13513993  1
  Gd  Gd33  1  0.11316135  0.74830875  0.88614067  1
  Gd  Gd34  1  0.45179096  0.75012439  0.89879781  1
  Gd  Gd35  1  0.55926211  0.86884751  0.62530144  1
  N  N36  1  0.21476968  0.21258553  0.33758185  1
  N  N37  1  0.11407969  0.09049304  0.10195342  1
  N  N38  1  0.89412223  0.19574100  0.87439572  1
  N  N39  1  0.78413085  0.07471238  0.59222832  1
  N  N40  1  0.51814752  0.23144731  0.31693364  1
  N  N41  1  0.44113974  0.08722416  0.10922480  1
  N  N42  1  0.22744692  0.19545655  0.87175919  1
  N  N43  1  0.12367547  0.06731700  0.56421369  1
  N  N44  1  0.89911689  0.22820660  0.33332071  1
  N  N45  1  0.78518875  0.08906365  0.11451218  1
  N  N46  1  0.55910224  0.19757701  0.90484315  1
  N  N47  1  0.44536293  0.11166843  0.55957179  1
  N  N48  1  0.21887774  0.54148210  0.34112284  1
  N  N49  1  0.14565985  0.41561452  0.08621324  1
  N  N50  1  0.89051531  0.53800952  0.84935597  1
  N  N51  1  0.76317453  0.46193898  0.58273281  1
  N  N52  1  0.55724216  0.53581134  0.34034380  1
  N  N53  1  0.43591834  0.44544237  0.09208819  1
  N  N54  1  0.25313621  0.48907519  0.82002214  1
  N  N55  1  0.09938182  0.44995106  0.58026185  1
  N  N56  1  0.88954245  0.53978960  0.34952335  1
  N  N57  1  0.75466166  0.41883831  0.08342259  1
  N  N58  1  0.57221258  0.49361998  0.82031844  1
  N  N59  1  0.43390915  0.44575554  0.57088106  1
  N  N60  1  0.21826315  0.86966729  0.34217947  1
  N  N61  1  0.11394545  0.76024664  0.10397859  1
  N  N62  1  0.86296314  0.89090485  0.83553675  1
  N  N63  1  0.81043518  0.74911216  0.58329374  1
  N  N64  1  0.56069216  0.86916086  0.35241518  1
  N  N65  1  0.44540239  0.76238048  0.11802052  1
  N  N66  1  0.20924304  0.90061123  0.82169088  1
  N  N67  1  0.11041286  0.75709982  0.59683309  1
  N  N68  1  0.90666818  0.83927322  0.33348952  1
  N  N69  1  0.76050743  0.79527491  0.08420172  1
  N  N70  1  0.55811038  0.89235450  0.84544730  1
  N  N71  1  0.42656795  0.74604190  0.58035275  1
