# generated using pymatgen
data_Gd2Al7N9
_symmetry_space_group_name_H-M   'P 1'
_cell_length_a   9.80164967
_cell_length_b   9.85988692
_cell_length_c   10.72145167
_cell_angle_alpha   89.65874224
_cell_angle_beta   89.42757749
_cell_angle_gamma   60.19994702
_symmetry_Int_Tables_number   1
_chemical_formula_structural   Gd2Al7N9
_chemical_formula_sum   'Gd8 Al28 N36'
_cell_volume   899.09352751
_cell_formula_units_Z   4
loop_
 _symmetry_equiv_pos_site_id
 _symmetry_equiv_pos_as_xyz
  1  'x, y, z'
loop_
 _atom_site_type_symbol
 _atom_site_label
 _atom_site_symmetry_multiplicity
 _atom_site_fract_x
 _atom_site_fract_y
 _atom_site_fract_z
 _atom_site_occupancy
  Al  Al0  1  0.11003741  0.10598106  0.30999752  1
  Al  Al1  1  0.22604973  0.20398935  0.06623770  1
  Al  Al2  1  0.76732427  0.09285107  0.90626550  1
  Al  Al3  1  0.43593517  0.09634873  0.29380970  1
  Al  Al4  1  0.54420242  0.21876465  0.12432729  1
  Al  Al5  1  0.11661101  0.08523181  0.82822375  1
  Al  Al6  1  0.89547241  0.20233128  0.06216094  1
  Al  Al7  1  0.44054420  0.08710882  0.83867176  1
  Al  Al8  1  0.12059150  0.42330595  0.29881890  1
  Al  Al9  1  0.22765745  0.53929875  0.06712712  1
  Al  Al10  1  0.77339543  0.41356260  0.87772449  1
  Al  Al11  1  0.88900132  0.55064795  0.65200309  1
  Al  Al12  1  0.44366142  0.43389310  0.37002261  1
  Al  Al13  1  0.55923958  0.53099202  0.13621090  1
  Al  Al14  1  0.12661520  0.41736340  0.82148384  1
  Al  Al15  1  0.21399735  0.54639725  0.54433316  1
  Al  Al16  1  0.78172561  0.45245049  0.38674042  1
  Al  Al17  1  0.45690424  0.40928763  0.89587785  1
  Al  Al18  1  0.54424944  0.54247633  0.62235637  1
  Al  Al19  1  0.11422282  0.74937136  0.31544363  1
  Al  Al20  1  0.21417345  0.87887852  0.07791876  1
  Al  Al21  1  0.77409143  0.77921020  0.82740614  1
  Al  Al22  1  0.90103081  0.85199328  0.54651828  1
  Al  Al23  1  0.43908245  0.76965322  0.30104026  1
  Al  Al24  1  0.55505420  0.88350693  0.07128968  1
  Al  Al25  1  0.22052702  0.86341815  0.55451741  1
  Al  Al26  1  0.77729239  0.75987475  0.30111327  1
  Al  Al27  1  0.89192642  0.87273977  0.07652361  1
  Gd  Gd28  1  0.87476542  0.21828183  0.60781015  1
  Gd  Gd29  1  0.21361008  0.20349761  0.56287792  1
  Gd  Gd30  1  0.78541287  0.09711498  0.34095775  1
  Gd  Gd31  1  0.55293652  0.21809044  0.64662574  1
  Gd  Gd32  1  0.89168792  0.54297895  0.08409954  1
  Gd  Gd33  1  0.10392854  0.76360410  0.80010007  1
  Gd  Gd34  1  0.45102428  0.74395919  0.84757017  1
  Gd  Gd35  1  0.57289972  0.84638213  0.56232831  1
  N  N36  1  0.22693173  0.20493579  0.34941081  1
  N  N37  1  0.10413748  0.10225050  0.12814428  1
  N  N38  1  0.89564706  0.19102550  0.87184634  1
  N  N39  1  0.78056110  0.06785297  0.55892549  1
  N  N40  1  0.52555249  0.22891561  0.30449228  1
  N  N41  1  0.43921716  0.09528228  0.11334173  1
  N  N42  1  0.21639558  0.20417506  0.88272019  1
  N  N43  1  0.12260358  0.05474630  0.65110549  1
  N  N44  1  0.91250233  0.22926254  0.39054440  1
  N  N45  1  0.77758409  0.10018581  0.09389153  1
  N  N46  1  0.55517602  0.19488566  0.86455918  1
  N  N47  1  0.43898014  0.07802561  0.65853170  1
  N  N48  1  0.21728464  0.53542730  0.36355084  1
  N  N49  1  0.14982434  0.41042754  0.12223976  1
  N  N50  1  0.88427841  0.53171769  0.84009592  1
  N  N51  1  0.75067283  0.49948399  0.56564092  1
  N  N52  1  0.56120613  0.53810429  0.31490172  1
  N  N53  1  0.45086136  0.43414389  0.07351768  1
  N  N54  1  0.23191655  0.51904093  0.88585568  1
  N  N55  1  0.11348525  0.44831884  0.64139451  1
  N  N56  1  0.89220730  0.53805750  0.30907495  1
  N  N57  1  0.75550273  0.41989635  0.05584066  1
  N  N58  1  0.57960072  0.47472479  0.79796197  1
  N  N59  1  0.43847698  0.45006506  0.54672884  1
  N  N60  1  0.21983116  0.87794927  0.36536536  1
  N  N61  1  0.11208810  0.75857936  0.13067072  1
  N  N62  1  0.87450723  0.87564017  0.90012961  1
  N  N63  1  0.81031209  0.76467046  0.65372198  1
  N  N64  1  0.55118240  0.87645352  0.34741689  1
  N  N65  1  0.44249882  0.76536634  0.11572413  1
  N  N66  1  0.20444507  0.89088228  0.90474020  1
  N  N67  1  0.11292539  0.75612946  0.58653482  1
  N  N68  1  0.90227130  0.83369576  0.36940292  1
  N  N69  1  0.76090460  0.79803325  0.12887907  1
  N  N70  1  0.56919780  0.87846176  0.89205133  1
  N  N71  1  0.41647292  0.75628427  0.63383431  1
