# generated using pymatgen
data_Gd2Al7N9
_symmetry_space_group_name_H-M   'P 1'
_cell_length_a   9.85153202
_cell_length_b   9.89428508
_cell_length_c   10.56950165
_cell_angle_alpha   88.93685737
_cell_angle_beta   89.57974913
_cell_angle_gamma   60.09079284
_symmetry_Int_Tables_number   1
_chemical_formula_structural   Gd2Al7N9
_chemical_formula_sum   'Gd8 Al28 N36'
_cell_volume   892.88208465
_cell_formula_units_Z   4
loop_
 _symmetry_equiv_pos_site_id
 _symmetry_equiv_pos_as_xyz
  1  'x, y, z'
loop_
 _atom_site_type_symbol
 _atom_site_label
 _atom_site_symmetry_multiplicity
 _atom_site_fract_x
 _atom_site_fract_y
 _atom_site_fract_z
 _atom_site_occupancy
  Al  Al0  1  0.11441178  0.09996076  0.29341619  1
  Al  Al1  1  0.22758614  0.20198599  0.05200510  1
  Al  Al2  1  0.76642679  0.10175115  0.88092967  1
  Al  Al3  1  0.43996064  0.09329886  0.27976885  1
  Al  Al4  1  0.54083527  0.21733270  0.05716067  1
  Al  Al5  1  0.11319377  0.09013336  0.81795098  1
  Al  Al6  1  0.89645764  0.20213044  0.04857231  1
  Al  Al7  1  0.44512083  0.09725639  0.81808682  1
  Al  Al8  1  0.12509659  0.41803348  0.29226022  1
  Al  Al9  1  0.23304924  0.53320434  0.05402773  1
  Al  Al10  1  0.76990612  0.42849560  0.86378137  1
  Al  Al11  1  0.88930481  0.54777210  0.64628771  1
  Al  Al12  1  0.44152474  0.42864612  0.29272910  1
  Al  Al13  1  0.54774374  0.53704007  0.05131443  1
  Al  Al14  1  0.12687163  0.42036731  0.81295778  1
  Al  Al15  1  0.21917543  0.54496153  0.54638093  1
  Al  Al16  1  0.78708255  0.43639844  0.35388169  1
  Al  Al17  1  0.44157749  0.42964242  0.80686533  1
  Al  Al18  1  0.54097471  0.55237662  0.54620790  1
  Al  Al19  1  0.11776814  0.74423527  0.30262724  1
  Al  Al20  1  0.21994039  0.87259882  0.06575269  1
  Al  Al21  1  0.77342716  0.78293407  0.81443373  1
  Al  Al22  1  0.90395438  0.84821349  0.53238761  1
  Al  Al23  1  0.44528226  0.75801880  0.29250121  1
  Al  Al24  1  0.55514253  0.87996509  0.05709894  1
  Al  Al25  1  0.21766873  0.86544294  0.53129981  1
  Al  Al26  1  0.78076448  0.75626027  0.28573000  1
  Al  Al27  1  0.89201450  0.87262798  0.05718185  1
  Gd  Gd28  1  0.87413707  0.20842453  0.59463927  1
  Gd  Gd29  1  0.20490120  0.20315761  0.55649641  1
  Gd  Gd30  1  0.79023063  0.08918848  0.31120252  1
  Gd  Gd31  1  0.53030127  0.21790697  0.54916075  1
  Gd  Gd32  1  0.89609622  0.53996444  0.07155767  1
  Gd  Gd33  1  0.10298437  0.76740785  0.78918843  1
  Gd  Gd34  1  0.43754891  0.77305207  0.79891368  1
  Gd  Gd35  1  0.58087732  0.85397763  0.54054300  1
  N  N36  1  0.23068702  0.19706350  0.33993272  1
  N  N37  1  0.10796048  0.09855508  0.11057509  1
  N  N38  1  0.88834000  0.20456202  0.85227783  1
  N  N39  1  0.77895148  0.06209240  0.54349913  1
  N  N40  1  0.52940380  0.21371174  0.33169920  1
  N  N41  1  0.44221892  0.09535050  0.09894051  1
  N  N42  1  0.21841723  0.20511601  0.86646777  1
  N  N43  1  0.12505715  0.04514929  0.64101670  1
  N  N44  1  0.91460133  0.22072283  0.37036707  1
  N  N45  1  0.77681190  0.10030375  0.07444296  1
  N  N46  1  0.54614201  0.21468930  0.86581438  1
  N  N47  1  0.43938797  0.07880465  0.64143539  1
  N  N48  1  0.23123160  0.52625486  0.36059538  1
  N  N49  1  0.15310674  0.40595892  0.11300204  1
  N  N50  1  0.88886639  0.53848411  0.83737498  1
  N  N51  1  0.75354319  0.47980107  0.59171405  1
  N  N52  1  0.55657672  0.53311351  0.35686389  1
  N  N53  1  0.44421446  0.43188917  0.11222744  1
  N  N54  1  0.23357063  0.51954180  0.87497966  1
  N  N55  1  0.11198592  0.44780838  0.63137761  1
  N  N56  1  0.89582920  0.53536281  0.30483475  1
  N  N57  1  0.76657668  0.41365729  0.06056952  1
  N  N58  1  0.55114489  0.52517949  0.86948121  1
  N  N59  1  0.42663571  0.46234451  0.62524826  1
  N  N60  1  0.21783909  0.87490461  0.34405285  1
  N  N61  1  0.11264803  0.75430300  0.11469156  1
  N  N62  1  0.87062930  0.88603594  0.87894060  1
  N  N63  1  0.81481123  0.75949010  0.63942861  1
  N  N64  1  0.55627362  0.87059846  0.32660917  1
  N  N65  1  0.44706822  0.75683987  0.10694001  1
  N  N66  1  0.20501651  0.89328961  0.89132643  1
  N  N67  1  0.11434029  0.75728682  0.57252281  1
  N  N68  1  0.90655163  0.82845023  0.35361692  1
  N  N69  1  0.76392371  0.79552970  0.11094086  1
  N  N70  1  0.56733804  0.88566490  0.87578118  1
  N  N71  1  0.42431050  0.76069384  0.58256948  1
