# generated using pymatgen
data_Gd2Al7N9
_symmetry_space_group_name_H-M   'P 1'
_cell_length_a   9.84602380
_cell_length_b   9.89712738
_cell_length_c   10.63531850
_cell_angle_alpha   89.01040136
_cell_angle_beta   89.60190455
_cell_angle_gamma   60.01748501
_symmetry_Int_Tables_number   1
_chemical_formula_structural   Gd2Al7N9
_chemical_formula_sum   'Gd8 Al28 N36'
_cell_volume   897.55705300
_cell_formula_units_Z   4
loop_
 _symmetry_equiv_pos_site_id
 _symmetry_equiv_pos_as_xyz
  1  'x, y, z'
loop_
 _atom_site_type_symbol
 _atom_site_label
 _atom_site_symmetry_multiplicity
 _atom_site_fract_x
 _atom_site_fract_y
 _atom_site_fract_z
 _atom_site_occupancy
  Al  Al0  1  0.11238893  0.10601437  0.29673109  1
  Al  Al1  1  0.22760731  0.20378625  0.05159652  1
  Al  Al2  1  0.76919296  0.09800221  0.88099478  1
  Al  Al3  1  0.44123905  0.09451414  0.28004212  1
  Al  Al4  1  0.54209298  0.21742665  0.05580967  1
  Al  Al5  1  0.11322389  0.08945236  0.81694198  1
  Al  Al6  1  0.89622097  0.20207473  0.04615159  1
  Al  Al7  1  0.44555671  0.09523190  0.81541919  1
  Al  Al8  1  0.12353592  0.42028475  0.29015009  1
  Al  Al9  1  0.23439136  0.53434211  0.05105779  1
  Al  Al10  1  0.77078394  0.42420634  0.86928993  1
  Al  Al11  1  0.88794029  0.54876189  0.64013393  1
  Al  Al12  1  0.43807367  0.42745109  0.29053087  1
  Al  Al13  1  0.56192677  0.53343371  0.12050566  1
  Al  Al14  1  0.12460687  0.42016700  0.81017720  1
  Al  Al15  1  0.21750893  0.54185505  0.54209896  1
  Al  Al16  1  0.78203818  0.45072524  0.37576576  1
  Al  Al17  1  0.44214969  0.41812839  0.80142154  1
  Al  Al18  1  0.54533526  0.54463343  0.62110025  1
  Al  Al19  1  0.11794095  0.74570184  0.30426833  1
  Al  Al20  1  0.21451803  0.87773920  0.06723161  1
  Al  Al21  1  0.77522196  0.78130167  0.81236987  1
  Al  Al22  1  0.90100961  0.85008873  0.53087670  1
  Al  Al23  1  0.44178302  0.76682687  0.28827706  1
  Al  Al24  1  0.55736762  0.88525051  0.05701128  1
  Al  Al25  1  0.21800698  0.86238660  0.53726956  1
  Al  Al26  1  0.78070154  0.75920622  0.28694986  1
  Al  Al27  1  0.89403387  0.87226679  0.05780860  1
  Gd  Gd28  1  0.86936480  0.21404842  0.59840187  1
  Gd  Gd29  1  0.20379053  0.20044081  0.55503745  1
  Gd  Gd30  1  0.79469189  0.09497222  0.31219890  1
  Gd  Gd31  1  0.53172024  0.20767504  0.54426534  1
  Gd  Gd32  1  0.89413556  0.54118626  0.07431679  1
  Gd  Gd33  1  0.10527322  0.76758112  0.78500439  1
  Gd  Gd34  1  0.44151868  0.76655855  0.82860709  1
  Gd  Gd35  1  0.57462177  0.84020366  0.54516685  1
  N  N36  1  0.23195053  0.20044315  0.33953218  1
  N  N37  1  0.10497441  0.10296699  0.11402359  1
  N  N38  1  0.89167834  0.20096317  0.85439115  1
  N  N39  1  0.78306141  0.06418564  0.54422364  1
  N  N40  1  0.53317733  0.21351469  0.32912471  1
  N  N41  1  0.44197562  0.09786409  0.10043662  1
  N  N42  1  0.21910010  0.20429105  0.86640170  1
  N  N43  1  0.11896142  0.04726946  0.64117134  1
  N  N44  1  0.91561180  0.22754368  0.37793083  1
  N  N45  1  0.77801471  0.10017668  0.07417731  1
  N  N46  1  0.54818123  0.20989539  0.86684166  1
  N  N47  1  0.43922979  0.07234013  0.64067563  1
  N  N48  1  0.22973177  0.52731233  0.35800286  1
  N  N49  1  0.15170733  0.40885657  0.11049169  1
  N  N50  1  0.88649726  0.53564617  0.83182768  1
  N  N51  1  0.74903400  0.49543162  0.55655276  1
  N  N52  1  0.56281201  0.53630668  0.30474977  1
  N  N53  1  0.44403613  0.43095319  0.10797500  1
  N  N54  1  0.23471290  0.51919431  0.87210230  1
  N  N55  1  0.10938492  0.44556726  0.62863976  1
  N  N56  1  0.89556486  0.53736598  0.30163283  1
  N  N57  1  0.75871133  0.41783275  0.04789157  1
  N  N58  1  0.57561107  0.50434195  0.80099769  1
  N  N59  1  0.42016785  0.44877387  0.61959003  1
  N  N60  1  0.22062350  0.87718864  0.34869772  1
  N  N61  1  0.11405674  0.75538340  0.11696290  1
  N  N62  1  0.87435497  0.88138352  0.87967781  1
  N  N63  1  0.81062816  0.76157259  0.63741981  1
  N  N64  1  0.55512230  0.87261540  0.33043983  1
  N  N65  1  0.44465698  0.76603284  0.10080681  1
  N  N66  1  0.19745030  0.89638988  0.89456299  1
  N  N67  1  0.11250571  0.75436303  0.56955321  1
  N  N68  1  0.90529576  0.83364920  0.35275037  1
  N  N69  1  0.76469771  0.79681731  0.11257158  1
  N  N70  1  0.57124633  0.88746489  0.87747452  1
  N  N71  1  0.41537171  0.75661348  0.61082558  1
