# generated using pymatgen
data_Gd2Al7N9
_symmetry_space_group_name_H-M   'P 1'
_cell_length_a   9.80183075
_cell_length_b   9.91746392
_cell_length_c   10.70031392
_cell_angle_alpha   89.32795243
_cell_angle_beta   89.21680153
_cell_angle_gamma   59.89974156
_symmetry_Int_Tables_number   1
_chemical_formula_structural   Gd2Al7N9
_chemical_formula_sum   'Gd8 Al28 N36'
_cell_volume   899.80389260
_cell_formula_units_Z   4
loop_
 _symmetry_equiv_pos_site_id
 _symmetry_equiv_pos_as_xyz
  1  'x, y, z'
loop_
 _atom_site_type_symbol
 _atom_site_label
 _atom_site_symmetry_multiplicity
 _atom_site_fract_x
 _atom_site_fract_y
 _atom_site_fract_z
 _atom_site_occupancy
  Al  Al0  1  0.10789075  0.09725745  0.33037091  1
  Al  Al1  1  0.23004824  0.20241004  0.14667169  1
  Al  Al2  1  0.76656874  0.09460083  0.92843290  1
  Al  Al3  1  0.44130550  0.10095237  0.38253057  1
  Al  Al4  1  0.54408835  0.21509359  0.14448643  1
  Al  Al5  1  0.12821883  0.08596279  0.84770241  1
  Al  Al6  1  0.89860013  0.20065196  0.08208453  1
  Al  Al7  1  0.43952893  0.09346667  0.92295886  1
  Al  Al8  1  0.11402327  0.43209179  0.31921334  1
  Al  Al9  1  0.24089972  0.54206075  0.15813947  1
  Al  Al10  1  0.77857217  0.41145351  0.89976679  1
  Al  Al11  1  0.88354180  0.54917562  0.66831710  1
  Al  Al12  1  0.44315080  0.43087139  0.39582725  1
  Al  Al13  1  0.56676421  0.52447938  0.15874668  1
  Al  Al14  1  0.13328841  0.41145712  0.82710920  1
  Al  Al15  1  0.22458358  0.53870892  0.62256711  1
  Al  Al16  1  0.78497317  0.44752121  0.41408970  1
  Al  Al17  1  0.45139313  0.41520884  0.91194530  1
  Al  Al18  1  0.54062244  0.53617124  0.65277105  1
  Al  Al19  1  0.11424949  0.75875475  0.34498569  1
  Al  Al20  1  0.21674532  0.87982025  0.10010626  1
  Al  Al21  1  0.77173297  0.79108553  0.83265543  1
  Al  Al22  1  0.89772702  0.85324055  0.56730849  1
  Al  Al23  1  0.44015268  0.75730264  0.32898583  1
  Al  Al24  1  0.55144956  0.88434658  0.16317955  1
  Al  Al25  1  0.21863285  0.86125884  0.58037762  1
  Al  Al26  1  0.79032254  0.75222158  0.32604843  1
  Al  Al27  1  0.89287466  0.87536127  0.09880600  1
  Gd  Gd28  1  0.85710559  0.21639785  0.65018251  1
  Gd  Gd29  1  0.16833481  0.21338403  0.56242095  1
  Gd  Gd30  1  0.78317618  0.10356076  0.36844489  1
  Gd  Gd31  1  0.52492974  0.20097048  0.67017901  1
  Gd  Gd32  1  0.89869796  0.54814937  0.08675941  1
  Gd  Gd33  1  0.10966764  0.77836068  0.82303382  1
  Gd  Gd34  1  0.46717506  0.74352362  0.88143256  1
  Gd  Gd35  1  0.56149520  0.84230739  0.59535969  1
  N  N36  1  0.22370405  0.20506085  0.33819778  1
  N  N37  1  0.10344468  0.09807941  0.15260936  1
  N  N38  1  0.90077143  0.18815608  0.89471273  1
  N  N39  1  0.76682390  0.07069179  0.58733547  1
  N  N40  1  0.52409665  0.22635414  0.32366643  1
  N  N41  1  0.44509782  0.08934549  0.10413809  1
  N  N42  1  0.22367431  0.20570002  0.87807654  1
  N  N43  1  0.11388462  0.04819068  0.67478279  1
  N  N44  1  0.92251158  0.22375713  0.42380353  1
  N  N45  1  0.77827684  0.10132675  0.11662672  1
  N  N46  1  0.55474122  0.19828729  0.89121998  1
  N  N47  1  0.42270477  0.09520859  0.55484410  1
  N  N48  1  0.23063927  0.53921614  0.34421369  1
  N  N49  1  0.14975696  0.41711836  0.14026120  1
  N  N50  1  0.88273509  0.53419824  0.85672817  1
  N  N51  1  0.74518696  0.49483133  0.58935264  1
  N  N52  1  0.56675011  0.52848272  0.33920974  1
  N  N53  1  0.44809308  0.43743832  0.09304195  1
  N  N54  1  0.25073824  0.51416504  0.83649357  1
  N  N55  1  0.10365732  0.44105500  0.64707347  1
  N  N56  1  0.89463652  0.53597502  0.33838122  1
  N  N57  1  0.76411971  0.41977410  0.07937322  1
  N  N58  1  0.58700572  0.47256730  0.82427133  1
  N  N59  1  0.43981082  0.43846859  0.57237699  1
  N  N60  1  0.22365676  0.87703072  0.39249125  1
  N  N61  1  0.11045900  0.76987669  0.15545058  1
  N  N62  1  0.87326279  0.87591664  0.92054457  1
  N  N63  1  0.81153028  0.75877320  0.66159764  1
  N  N64  1  0.55487534  0.86900156  0.35141303  1
  N  N65  1  0.44585116  0.76136426  0.14333913  1
  N  N66  1  0.21720683  0.89412276  0.92936999  1
  N  N67  1  0.11153103  0.75280917  0.60431870  1
  N  N68  1  0.90156603  0.84136364  0.39026410  1
  N  N69  1  0.76785598  0.79463582  0.15259275  1
  N  N70  1  0.55552093  0.90279026  0.83923932  1
  N  N71  1  0.40831380  0.74824261  0.66529791  1
