# generated using pymatgen
data_Gd2Al7N9
_symmetry_space_group_name_H-M   'P 1'
_cell_length_a   9.88001827
_cell_length_b   9.89345214
_cell_length_c   10.55301844
_cell_angle_alpha   89.14570614
_cell_angle_beta   90.05230651
_cell_angle_gamma   60.08654127
_symmetry_Int_Tables_number   1
_chemical_formula_structural   Gd2Al7N9
_chemical_formula_sum   'Gd8 Al28 N36'
_cell_volume   893.96923439
_cell_formula_units_Z   4
loop_
 _symmetry_equiv_pos_site_id
 _symmetry_equiv_pos_as_xyz
  1  'x, y, z'
loop_
 _atom_site_type_symbol
 _atom_site_label
 _atom_site_symmetry_multiplicity
 _atom_site_fract_x
 _atom_site_fract_y
 _atom_site_fract_z
 _atom_site_occupancy
  Al  Al0  1  0.11096279  0.10013476  0.38887664  1
  Al  Al1  1  0.22090600  0.21159980  0.15735337  1
  Al  Al2  1  0.77336015  0.10655830  0.93719494  1
  Al  Al3  1  0.42785469  0.11340080  0.38398435  1
  Al  Al4  1  0.53904849  0.21882015  0.13727143  1
  Al  Al5  1  0.10557432  0.10746833  0.93144122  1
  Al  Al6  1  0.88560006  0.21766327  0.16120482  1
  Al  Al7  1  0.44400528  0.09305620  0.92620800  1
  Al  Al8  1  0.10128308  0.43657482  0.39813544  1
  Al  Al9  1  0.22862099  0.53421975  0.15503843  1
  Al  Al10  1  0.77769357  0.40795244  0.90284763  1
  Al  Al11  1  0.90118242  0.53698692  0.66213967  1
  Al  Al12  1  0.43478511  0.43228064  0.39426620  1
  Al  Al13  1  0.55311994  0.52995605  0.15307643  1
  Al  Al14  1  0.13241466  0.41083592  0.90384751  1
  Al  Al15  1  0.23048786  0.52880176  0.63666184  1
  Al  Al16  1  0.77355680  0.44663073  0.39968314  1
  Al  Al17  1  0.44718918  0.41976036  0.90886453  1
  Al  Al18  1  0.54829697  0.53399764  0.64700394  1
  Al  Al19  1  0.11220786  0.75249619  0.33505394  1
  Al  Al20  1  0.21461055  0.87671376  0.10220063  1
  Al  Al21  1  0.77143817  0.79359286  0.83398772  1
  Al  Al22  1  0.91409654  0.84461642  0.57181140  1
  Al  Al23  1  0.43617817  0.75640403  0.32462791  1
  Al  Al24  1  0.54368095  0.88942741  0.16319973  1
  Al  Al25  1  0.23052638  0.84910565  0.56315845  1
  Al  Al26  1  0.78547773  0.75498425  0.32758426  1
  Al  Al27  1  0.88525488  0.87885262  0.09968254  1
  Gd  Gd28  1  0.89044436  0.20780958  0.64845849  1
  Gd  Gd29  1  0.23219349  0.19074819  0.65241444  1
  Gd  Gd30  1  0.76724950  0.09616983  0.37193655  1
  Gd  Gd31  1  0.56277391  0.19367678  0.67584000  1
  Gd  Gd32  1  0.88545193  0.54610287  0.11050180  1
  Gd  Gd33  1  0.10338517  0.76786893  0.83801742  1
  Gd  Gd34  1  0.45775795  0.75567421  0.86974838  1
  Gd  Gd35  1  0.57947480  0.83738249  0.58340961  1
  N  N36  1  0.21261678  0.21502729  0.34057494  1
  N  N37  1  0.10249435  0.10987664  0.11534362  1
  N  N38  1  0.89672918  0.19179491  0.86987480  1
  N  N39  1  0.79416048  0.06426338  0.59105103  1
  N  N40  1  0.51416272  0.23167642  0.31864598  1
  N  N41  1  0.43510565  0.09509266  0.10694675  1
  N  N42  1  0.22604443  0.19601751  0.87160867  1
  N  N43  1  0.12322846  0.06768773  0.56820577  1
  N  N44  1  0.89455317  0.23131824  0.34446203  1
  N  N45  1  0.77816861  0.10345746  0.12465740  1
  N  N46  1  0.55742827  0.20151763  0.90312838  1
  N  N47  1  0.45470493  0.09425981  0.55793995  1
  N  N48  1  0.22188181  0.53217846  0.33807607  1
  N  N49  1  0.14540486  0.41680193  0.08503718  1
  N  N50  1  0.89721338  0.52004446  0.85871274  1
  N  N51  1  0.75687026  0.47780347  0.58273202  1
  N  N52  1  0.55614705  0.53215108  0.33621531  1
  N  N53  1  0.43342010  0.44566689  0.08959837  1
  N  N54  1  0.24833585  0.49561860  0.82394789  1
  N  N55  1  0.10073430  0.44442633  0.58117464  1
  N  N56  1  0.88856945  0.53818144  0.33716632  1
  N  N57  1  0.75377932  0.41813683  0.08336120  1
  N  N58  1  0.57896352  0.48443254  0.82657704  1
  N  N59  1  0.44133758  0.43699058  0.57414620  1
  N  N60  1  0.22407313  0.86190308  0.37443306  1
  N  N61  1  0.10431352  0.76548711  0.14541095  1
  N  N62  1  0.86472384  0.88770692  0.92067886  1
  N  N63  1  0.82455469  0.74988266  0.66453070  1
  N  N64  1  0.54892928  0.87164848  0.35162181  1
  N  N65  1  0.44278983  0.76401860  0.13722305  1
  N  N66  1  0.21161305  0.89196981  0.92348193  1
  N  N67  1  0.12302518  0.75013521  0.61828697  1
  N  N68  1  0.90668313  0.83179443  0.39322102  1
  N  N69  1  0.75822214  0.80087834  0.15220201  1
  N  N70  1  0.55678054  0.90905697  0.83437353  1
  N  N71  1  0.42119125  0.75122560  0.64856738  1
