# generated using pymatgen
data_Gd2Al7N9
_symmetry_space_group_name_H-M   'P 1'
_cell_length_a   9.81108017
_cell_length_b   9.91641717
_cell_length_c   10.64475203
_cell_angle_alpha   89.13981438
_cell_angle_beta   89.64580872
_cell_angle_gamma   59.89777222
_symmetry_Int_Tables_number   1
_chemical_formula_structural   Gd2Al7N9
_chemical_formula_sum   'Gd8 Al28 N36'
_cell_volume   895.85975290
_cell_formula_units_Z   4
loop_
 _symmetry_equiv_pos_site_id
 _symmetry_equiv_pos_as_xyz
  1  'x, y, z'
loop_
 _atom_site_type_symbol
 _atom_site_label
 _atom_site_symmetry_multiplicity
 _atom_site_fract_x
 _atom_site_fract_y
 _atom_site_fract_z
 _atom_site_occupancy
  Al  Al0  1  0.11550616  0.10613675  0.31245814  1
  Al  Al1  1  0.22801277  0.20398698  0.06370045  1
  Al  Al2  1  0.76839171  0.09650981  0.89813317  1
  Al  Al3  1  0.44356520  0.09148792  0.29126671  1
  Al  Al4  1  0.54346554  0.21625802  0.07650876  1
  Al  Al5  1  0.11506502  0.08695487  0.83026495  1
  Al  Al6  1  0.89874030  0.20025433  0.06014431  1
  Al  Al7  1  0.44335463  0.09564110  0.82683983  1
  Al  Al8  1  0.12655970  0.42008774  0.30346465  1
  Al  Al9  1  0.23634760  0.53460742  0.06278318  1
  Al  Al10  1  0.77562187  0.41947900  0.88340790  1
  Al  Al11  1  0.88418051  0.55179619  0.65320408  1
  Al  Al12  1  0.43980415  0.42925666  0.30049748  1
  Al  Al13  1  0.56599705  0.53257228  0.13496759  1
  Al  Al14  1  0.12369026  0.42165168  0.82250479  1
  Al  Al15  1  0.21566508  0.54350092  0.55613700  1
  Al  Al16  1  0.78458283  0.45037472  0.39138881  1
  Al  Al17  1  0.44524165  0.41099072  0.81370955  1
  Al  Al18  1  0.54328501  0.54470179  0.63678363  1
  Al  Al19  1  0.12031621  0.74491073  0.31936441  1
  Al  Al20  1  0.21508338  0.87850000  0.08241960  1
  Al  Al21  1  0.77518770  0.78181364  0.82550056  1
  Al  Al22  1  0.89604461  0.85298749  0.54389110  1
  Al  Al23  1  0.44455296  0.76660779  0.30215498  1
  Al  Al24  1  0.55908181  0.88563908  0.06814000  1
  Al  Al25  1  0.21569835  0.86392220  0.55444228  1
  Al  Al26  1  0.78126381  0.75903765  0.30203003  1
  Al  Al27  1  0.89614248  0.87106559  0.07261381  1
  Gd  Gd28  1  0.85814056  0.21606983  0.61727603  1
  Gd  Gd29  1  0.19091132  0.20604456  0.56838148  1
  Gd  Gd30  1  0.80028644  0.09387700  0.32605175  1
  Gd  Gd31  1  0.51929525  0.21174833  0.54437465  1
  Gd  Gd32  1  0.89630648  0.54153624  0.08804262  1
  Gd  Gd33  1  0.10787395  0.76841998  0.79802516  1
  Gd  Gd34  1  0.44915034  0.75234135  0.85554112  1
  Gd  Gd35  1  0.56509190  0.84477032  0.56485166  1
  N  N36  1  0.23575784  0.20102607  0.35521426  1
  N  N37  1  0.10690508  0.10255443  0.13014884  1
  N  N38  1  0.89372294  0.19718349  0.87064923  1
  N  N39  1  0.77237730  0.06815966  0.55350593  1
  N  N40  1  0.53722235  0.21314648  0.32779439  1
  N  N41  1  0.44181753  0.09552934  0.11312166  1
  N  N42  1  0.21641566  0.20620397  0.87944024  1
  N  N43  1  0.11086173  0.04893073  0.65572597  1
  N  N44  1  0.91977374  0.22728598  0.39708190  1
  N  N45  1  0.78082266  0.09848650  0.08906844  1
  N  N46  1  0.54750097  0.20659828  0.88377417  1
  N  N47  1  0.42981628  0.08089302  0.65192640  1
  N  N48  1  0.23301780  0.52622463  0.37225960  1
  N  N49  1  0.15514404  0.40825174  0.12400164  1
  N  N50  1  0.88510287  0.53677803  0.84496395  1
  N  N51  1  0.74671802  0.49681747  0.57027067  1
  N  N52  1  0.56501513  0.53656285  0.31806580  1
  N  N53  1  0.44575309  0.43378489  0.11919589  1
  N  N54  1  0.23560146  0.51942150  0.88403849  1
  N  N55  1  0.10629710  0.44916767  0.64154711  1
  N  N56  1  0.89775742  0.53669948  0.31535204  1
  N  N57  1  0.76274774  0.41652899  0.06192957  1
  N  N58  1  0.58262679  0.49233907  0.81260370  1
  N  N59  1  0.42114143  0.44543610  0.63143657  1
  N  N60  1  0.22362559  0.87692883  0.36478558  1
  N  N61  1  0.11651881  0.75491373  0.13176294  1
  N  N62  1  0.87591295  0.87957688  0.89428675  1
  N  N63  1  0.80541958  0.76470397  0.65024724  1
  N  N64  1  0.55630704  0.87231005  0.34779385  1
  N  N65  1  0.44801498  0.76500361  0.11399442  1
  N  N66  1  0.20043173  0.89559997  0.90985650  1
  N  N67  1  0.10918545  0.75614794  0.58274535  1
  N  N68  1  0.90681342  0.83335963  0.36597158  1
  N  N69  1  0.76531281  0.79688407  0.12701224  1
  N  N70  1  0.56946075  0.88693031  0.88797737  1
  N  N71  1  0.40951763  0.75698766  0.63720044  1
