# generated using pymatgen
data_Gd2Al7N9
_symmetry_space_group_name_H-M   'P 1'
_cell_length_a   9.84208125
_cell_length_b   9.90067231
_cell_length_c   10.63518879
_cell_angle_alpha   89.03980772
_cell_angle_beta   89.59968075
_cell_angle_gamma   60.02543328
_symmetry_Int_Tables_number   1
_chemical_formula_structural   Gd2Al7N9
_chemical_formula_sum   'Gd8 Al28 N36'
_cell_volume   897.58827099
_cell_formula_units_Z   4
loop_
 _symmetry_equiv_pos_site_id
 _symmetry_equiv_pos_as_xyz
  1  'x, y, z'
loop_
 _atom_site_type_symbol
 _atom_site_label
 _atom_site_symmetry_multiplicity
 _atom_site_fract_x
 _atom_site_fract_y
 _atom_site_fract_z
 _atom_site_occupancy
  Al  Al0  1  0.11255169  0.10620402  0.29694458  1
  Al  Al1  1  0.22756107  0.20392762  0.05138267  1
  Al  Al2  1  0.76947701  0.09757881  0.88093193  1
  Al  Al3  1  0.44134372  0.09446631  0.27997055  1
  Al  Al4  1  0.54226116  0.21723725  0.05583650  1
  Al  Al5  1  0.11397445  0.08888621  0.81644426  1
  Al  Al6  1  0.89666959  0.20169093  0.04602878  1
  Al  Al7  1  0.44523471  0.09499889  0.81487720  1
  Al  Al8  1  0.12348823  0.42052722  0.28997309  1
  Al  Al9  1  0.23450557  0.53438272  0.05087242  1
  Al  Al10  1  0.77200204  0.42296153  0.86923357  1
  Al  Al11  1  0.88726277  0.54932207  0.63980952  1
  Al  Al12  1  0.43809584  0.42758572  0.29013224  1
  Al  Al13  1  0.56252782  0.53291401  0.12052481  1
  Al  Al14  1  0.12438513  0.42038743  0.80993364  1
  Al  Al15  1  0.21722457  0.54210558  0.54195840  1
  Al  Al16  1  0.78183070  0.45111443  0.37576468  1
  Al  Al17  1  0.44250640  0.41684219  0.80123744  1
  Al  Al18  1  0.54479073  0.54476700  0.62198139  1
  Al  Al19  1  0.11817437  0.74579135  0.30458218  1
  Al  Al20  1  0.21415745  0.87812890  0.06726089  1
  Al  Al21  1  0.77528048  0.78144793  0.81206502  1
  Al  Al22  1  0.90045006  0.85050378  0.53071239  1
  Al  Al23  1  0.44200318  0.76699801  0.28783172  1
  Al  Al24  1  0.55767103  0.88574646  0.05670068  1
  Al  Al25  1  0.21796941  0.86267028  0.53808252  1
  Al  Al26  1  0.78051064  0.75949487  0.28721042  1
  Al  Al27  1  0.89430717  0.87219003  0.05774854  1
  Gd  Gd28  1  0.86838201  0.21474542  0.59857903  1
  Gd  Gd29  1  0.20282028  0.20137338  0.55474945  1
  Gd  Gd30  1  0.79512989  0.09496202  0.31200711  1
  Gd  Gd31  1  0.53122700  0.20801024  0.54325220  1
  Gd  Gd32  1  0.89406154  0.54154539  0.07429268  1
  Gd  Gd33  1  0.10613318  0.76730290  0.78463847  1
  Gd  Gd34  1  0.44357583  0.76287040  0.83272935  1
  Gd  Gd35  1  0.57286578  0.84043646  0.54635208  1
  N  N36  1  0.23199986  0.20086350  0.33942943  1
  N  N37  1  0.10522074  0.10281124  0.11425779  1
  N  N38  1  0.89250537  0.20011328  0.85458564  1
  N  N39  1  0.78267726  0.06455529  0.54390920  1
  N  N40  1  0.53349941  0.21363335  0.32811014  1
  N  N41  1  0.44188188  0.09787642  0.10039205  1
  N  N42  1  0.21890527  0.20453723  0.86620559  1
  N  N43  1  0.11808905  0.04817640  0.64068155  1
  N  N44  1  0.91558443  0.22798009  0.37807286  1
  N  N45  1  0.77827276  0.10000161  0.07403144  1
  N  N46  1  0.54832615  0.20905211  0.86690738  1
  N  N47  1  0.43836448  0.07353715  0.64008566  1
  N  N48  1  0.22985289  0.52735999  0.35786754  1
  N  N49  1  0.15169410  0.40899631  0.11030827  1
  N  N50  1  0.88622209  0.53581267  0.83159411  1
  N  N51  1  0.74801154  0.49630759  0.55632993  1
  N  N52  1  0.56271040  0.53664462  0.30442949  1
  N  N53  1  0.44423319  0.43096480  0.10760941  1
  N  N54  1  0.23490948  0.51910134  0.87195049  1
  N  N55  1  0.10872841  0.44630474  0.62846886  1
  N  N56  1  0.89545256  0.53765905  0.30152994  1
  N  N57  1  0.75935317  0.41747520  0.04787104  1
  N  N58  1  0.57721688  0.50141262  0.80091955  1
  N  N59  1  0.41982092  0.44867793  0.61947519  1
  N  N60  1  0.22126766  0.87719735  0.34911334  1
  N  N61  1  0.11431055  0.75544124  0.11708095  1
  N  N62  1  0.87491065  0.88093874  0.87954429  1
  N  N63  1  0.80968711  0.76212068  0.63702581  1
  N  N64  1  0.55497707  0.87273166  0.33099563  1
  N  N65  1  0.44510848  0.76581531  0.10013455  1
  N  N66  1  0.19785606  0.89630110  0.89450411  1
  N  N67  1  0.11215969  0.75463166  0.56920502  1
  N  N68  1  0.90537320  0.83384847  0.35260586  1
  N  N69  1  0.76465534  0.79714378  0.11270265  1
  N  N70  1  0.57113784  0.88742319  0.87695615  1
  N  N71  1  0.41402378  0.75687165  0.61458456  1
