# generated using pymatgen
data_Gd2Al7N9
_symmetry_space_group_name_H-M   'P 1'
_cell_length_a   9.83137991
_cell_length_b   9.91044485
_cell_length_c   10.63428998
_cell_angle_alpha   89.13348364
_cell_angle_beta   89.59289600
_cell_angle_gamma   59.99990321
_symmetry_Int_Tables_number   1
_chemical_formula_structural   Gd2Al7N9
_chemical_formula_sum   'Gd8 Al28 N36'
_cell_volume   897.21516568
_cell_formula_units_Z   4
loop_
 _symmetry_equiv_pos_site_id
 _symmetry_equiv_pos_as_xyz
  1  'x, y, z'
loop_
 _atom_site_type_symbol
 _atom_site_label
 _atom_site_symmetry_multiplicity
 _atom_site_fract_x
 _atom_site_fract_y
 _atom_site_fract_z
 _atom_site_occupancy
  Al  Al0  1  0.11313740  0.10659962  0.29953474  1
  Al  Al1  1  0.22754137  0.20419082  0.05301196  1
  Al  Al2  1  0.77029289  0.09631624  0.88302531  1
  Al  Al3  1  0.44178183  0.09425862  0.28167892  1
  Al  Al4  1  0.54286175  0.21666168  0.05823458  1
  Al  Al5  1  0.11584879  0.08735282  0.81773469  1
  Al  Al6  1  0.89783548  0.20064396  0.04788575  1
  Al  Al7  1  0.44434993  0.09451901  0.81595275  1
  Al  Al8  1  0.12356158  0.42112340  0.29167082  1
  Al  Al9  1  0.23509216  0.53426355  0.05248619  1
  Al  Al10  1  0.77459983  0.42024160  0.87124617  1
  Al  Al11  1  0.88542315  0.55081358  0.64118015  1
  Al  Al12  1  0.43825236  0.42792802  0.29137637  1
  Al  Al13  1  0.56413555  0.53169714  0.12307836  1
  Al  Al14  1  0.12385676  0.42087100  0.81139339  1
  Al  Al15  1  0.21616513  0.54289582  0.54367101  1
  Al  Al16  1  0.78179202  0.45181481  0.37816472  1
  Al  Al17  1  0.44362117  0.41378225  0.80264441  1
  Al  Al18  1  0.54338946  0.54503110  0.62526519  1
  Al  Al19  1  0.11863157  0.74610009  0.30723073  1
  Al  Al20  1  0.21411470  0.87857543  0.06959916  1
  Al  Al21  1  0.77544439  0.78171067  0.81356711  1
  Al  Al22  1  0.89866134  0.85184803  0.53267771  1
  Al  Al23  1  0.44268702  0.76724792  0.28951804  1
  Al  Al24  1  0.55841355  0.88650987  0.05806395  1
  Al  Al25  1  0.21723201  0.86346929  0.54175139  1
  Al  Al26  1  0.78016383  0.76023788  0.28989781  1
  Al  Al27  1  0.89517448  0.87183380  0.05980977  1
  Gd  Gd28  1  0.86537278  0.21645045  0.60199459  1
  Gd  Gd29  1  0.19938432  0.20370717  0.55609148  1
  Gd  Gd30  1  0.79634135  0.09520138  0.31398138  1
  Gd  Gd31  1  0.52891123  0.20878810  0.54266249  1
  Gd  Gd32  1  0.89409206  0.54220135  0.07630701  1
  Gd  Gd33  1  0.10874654  0.76639859  0.78618726  1
  Gd  Gd34  1  0.44820883  0.75524635  0.84237397  1
  Gd  Gd35  1  0.56858030  0.84136165  0.55098282  1
  N  N36  1  0.23234186  0.20182934  0.34135181  1
  N  N37  1  0.10597759  0.10237937  0.11695398  1
  N  N38  1  0.89440199  0.19798059  0.85729696  1
  N  N39  1  0.78081812  0.06596379  0.54545616  1
  N  N40  1  0.53434468  0.21386535  0.32748675  1
  N  N41  1  0.44184916  0.09771713  0.10222741  1
  N  N42  1  0.21821533  0.20519221  0.86799533  1
  N  N43  1  0.11585568  0.04979590  0.64212517  1
  N  N44  1  0.91611100  0.22880081  0.38124307  1
  N  N45  1  0.77910544  0.09941390  0.07592688  1
  N  N46  1  0.54880517  0.20700571  0.86912719  1
  N  N47  1  0.43534238  0.07630508  0.64109631  1
  N  N48  1  0.23007626  0.52764672  0.35965327  1
  N  N49  1  0.15196749  0.40924342  0.11204052  1
  N  N50  1  0.88546992  0.53621597  0.83317355  1
  N  N51  1  0.74584138  0.49819704  0.55794663  1
  N  N52  1  0.56274466  0.53710332  0.30623844  1
  N  N53  1  0.44497976  0.43097746  0.10893457  1
  N  N54  1  0.23562485  0.51851082  0.87363215  1
  N  N55  1  0.10706565  0.44809275  0.63008555  1
  N  N56  1  0.89531123  0.53834235  0.30348006  1
  N  N57  1  0.76092216  0.41658718  0.04994631  1
  N  N58  1  0.58089318  0.49504159  0.80206745  1
  N  N59  1  0.41896384  0.44835516  0.62099578  1
  N  N60  1  0.22242030  0.87734841  0.35213026  1
  N  N61  1  0.11519734  0.75542785  0.11936771  1
  N  N62  1  0.87649173  0.87961575  0.88137561  1
  N  N63  1  0.80710847  0.76360437  0.63826933  1
  N  N64  1  0.55474771  0.87314733  0.33441303  1
  N  N65  1  0.44655379  0.76509420  0.10153808  1
  N  N66  1  0.19983222  0.89565403  0.89668706  1
  N  N67  1  0.11092416  0.75544395  0.57079848  1
  N  N68  1  0.90540550  0.83460444  0.35447803  1
  N  N69  1  0.76478332  0.79772460  0.11505038  1
  N  N70  1  0.57073881  0.88710420  0.87788939  1
  N  N71  1  0.41085188  0.75718961  0.62367607  1
