# generated using pymatgen
data_Gd2Al7N9
_symmetry_space_group_name_H-M   'P 1'
_cell_length_a   9.84300321
_cell_length_b   9.86609266
_cell_length_c   10.46638748
_cell_angle_alpha   89.55796232
_cell_angle_beta   89.82265571
_cell_angle_gamma   59.96120981
_symmetry_Int_Tables_number   1
_chemical_formula_structural   Gd2Al7N9
_chemical_formula_sum   'Gd8 Al28 N36'
_cell_volume   879.86749529
_cell_formula_units_Z   4
loop_
 _symmetry_equiv_pos_site_id
 _symmetry_equiv_pos_as_xyz
  1  'x, y, z'
loop_
 _atom_site_type_symbol
 _atom_site_label
 _atom_site_symmetry_multiplicity
 _atom_site_fract_x
 _atom_site_fract_y
 _atom_site_fract_z
 _atom_site_occupancy
  Al  Al0  1  0.11306777  0.09961254  0.28275533  1
  Al  Al1  1  0.22341610  0.20668001  0.04533442  1
  Al  Al2  1  0.77462212  0.08815491  0.81173598  1
  Al  Al3  1  0.43859136  0.09763796  0.27319830  1
  Al  Al4  1  0.55078645  0.21158759  0.03509465  1
  Al  Al5  1  0.11411937  0.09369971  0.81017149  1
  Al  Al6  1  0.88591179  0.20744865  0.03313099  1
  Al  Al7  1  0.44451836  0.09709608  0.81311393  1
  Al  Al8  1  0.11965751  0.42316637  0.29149486  1
  Al  Al9  1  0.22850590  0.53344446  0.04997202  1
  Al  Al10  1  0.77313630  0.43591897  0.79613691  1
  Al  Al11  1  0.89182294  0.54751025  0.55273464  1
  Al  Al12  1  0.43844941  0.42800974  0.28878250  1
  Al  Al13  1  0.55569339  0.52721499  0.05204215  1
  Al  Al14  1  0.11370707  0.42805785  0.79800425  1
  Al  Al15  1  0.22027538  0.54672934  0.53806761  1
  Al  Al16  1  0.77888019  0.42612535  0.30048216  1
  Al  Al17  1  0.44395364  0.42756369  0.80480438  1
  Al  Al18  1  0.54359127  0.54897084  0.54048269  1
  Al  Al19  1  0.11200677  0.75328636  0.29911627  1
  Al  Al20  1  0.21680833  0.87543090  0.05864019  1
  Al  Al21  1  0.78194597  0.76367226  0.79710429  1
  Al  Al22  1  0.90012830  0.85797423  0.54039506  1
  Al  Al23  1  0.44383487  0.75875486  0.28479127  1
  Al  Al24  1  0.55744331  0.87983037  0.05106875  1
  Al  Al25  1  0.22206684  0.86502086  0.52722419  1
  Al  Al26  1  0.77858329  0.76177555  0.29004499  1
  Al  Al27  1  0.88770291  0.87507787  0.04239242  1
  Gd  Gd28  1  0.89061850  0.20492207  0.57219298  1
  Gd  Gd29  1  0.21528759  0.20410257  0.54600074  1
  Gd  Gd30  1  0.78160084  0.09633687  0.28219834  1
  Gd  Gd31  1  0.55006126  0.21427411  0.55879841  1
  Gd  Gd32  1  0.88545941  0.53977479  0.05478460  1
  Gd  Gd33  1  0.10958000  0.76267982  0.78497191  1
  Gd  Gd34  1  0.44416062  0.76206199  0.80261395  1
  Gd  Gd35  1  0.56786417  0.86353337  0.53624403  1
  N  N36  1  0.22690607  0.20039290  0.32844948  1
  N  N37  1  0.10413672  0.10163847  0.09968826  1
  N  N38  1  0.88794610  0.21230166  0.84291433  1
  N  N39  1  0.79422168  0.05490462  0.62490910  1
  N  N40  1  0.52925444  0.21361984  0.34030737  1
  N  N41  1  0.44290236  0.09918774  0.08935919  1
  N  N42  1  0.21745866  0.20989905  0.85750151  1
  N  N43  1  0.13445305  0.04940167  0.63082829  1
  N  N44  1  0.91023120  0.21569249  0.35731999  1
  N  N45  1  0.77668103  0.09790825  0.06765411  1
  N  N46  1  0.55232221  0.21016628  0.84941242  1
  N  N47  1  0.44219910  0.08820456  0.63496346  1
  N  N48  1  0.22586308  0.53293509  0.35203737  1
  N  N49  1  0.13716230  0.41535783  0.11104001  1
  N  N50  1  0.88961652  0.53917056  0.84093083  1
  N  N51  1  0.75271896  0.47142290  0.61216791  1
  N  N52  1  0.55395840  0.53378207  0.35234297  1
  N  N53  1  0.44346269  0.42587947  0.10523415  1
  N  N54  1  0.23390512  0.51522791  0.86869041  1
  N  N55  1  0.10599027  0.45275782  0.61253998  1
  N  N56  1  0.88882833  0.54029118  0.34924411  1
  N  N57  1  0.76467903  0.40681042  0.11754406  1
  N  N58  1  0.57048714  0.50967982  0.87078686  1
  N  N59  1  0.42386127  0.46499291  0.62122247  1
  N  N60  1  0.21945188  0.87630460  0.33825708  1
  N  N61  1  0.10849997  0.75882406  0.10858656  1
  N  N62  1  0.87201220  0.87602065  0.86536074  1
  N  N63  1  0.81029535  0.74934788  0.61629086  1
  N  N64  1  0.55122796  0.87493116  0.32068119  1
  N  N65  1  0.44810406  0.75533986  0.09805931  1
  N  N66  1  0.20565054  0.89537486  0.88284480  1
  N  N67  1  0.11490036  0.76031050  0.56643931  1
  N  N68  1  0.89571225  0.84916167  0.35831906  1
  N  N69  1  0.76791061  0.79139576  0.11235548  1
  N  N70  1  0.57215442  0.88189459  0.86600167  1
  N  N71  1  0.42697536  0.75633076  0.58359363  1
