# generated using pymatgen
data_Gd2Al7N9
_symmetry_space_group_name_H-M   'P 1'
_cell_length_a   9.85810782
_cell_length_b   9.86572656
_cell_length_c   10.42474489
_cell_angle_alpha   89.60970831
_cell_angle_beta   89.76783805
_cell_angle_gamma   60.01577064
_symmetry_Int_Tables_number   1
_chemical_formula_structural   Gd2Al7N9
_chemical_formula_sum   'Gd8 Al28 N36'
_cell_volume   878.16778711
_cell_formula_units_Z   4
loop_
 _symmetry_equiv_pos_site_id
 _symmetry_equiv_pos_as_xyz
  1  'x, y, z'
loop_
 _atom_site_type_symbol
 _atom_site_label
 _atom_site_symmetry_multiplicity
 _atom_site_fract_x
 _atom_site_fract_y
 _atom_site_fract_z
 _atom_site_occupancy
  Al  Al0  1  0.11308628  0.09536440  0.39449203  1
  Al  Al1  1  0.22593615  0.20387393  0.16042928  1
  Al  Al2  1  0.78056245  0.08953580  0.93509691  1
  Al  Al3  1  0.43362034  0.10756288  0.38995690  1
  Al  Al4  1  0.54455959  0.21334423  0.14298915  1
  Al  Al5  1  0.11344943  0.09323906  0.92507533  1
  Al  Al6  1  0.88933977  0.20827648  0.15578969  1
  Al  Al7  1  0.44522218  0.08948374  0.93623348  1
  Al  Al8  1  0.10775601  0.43276344  0.40636742  1
  Al  Al9  1  0.22739335  0.54005054  0.16561459  1
  Al  Al10  1  0.77537986  0.41515960  0.91066920  1
  Al  Al11  1  0.89151308  0.54617464  0.65509795  1
  Al  Al12  1  0.43523476  0.43326639  0.39964334  1
  Al  Al13  1  0.55102792  0.53749295  0.16699681  1
  Al  Al14  1  0.12942915  0.41230078  0.91243818  1
  Al  Al15  1  0.22461780  0.53629096  0.64464926  1
  Al  Al16  1  0.77677361  0.43902266  0.40759216  1
  Al  Al17  1  0.45022353  0.41732061  0.91952648  1
  Al  Al18  1  0.54880574  0.53752288  0.64293806  1
  Al  Al19  1  0.11278158  0.75422981  0.40901198  1
  Al  Al20  1  0.22113712  0.87083751  0.16976271  1
  Al  Al21  1  0.76865684  0.77895938  0.90962669  1
  Al  Al22  1  0.89266847  0.86815512  0.65654903  1
  Al  Al23  1  0.43895962  0.75524574  0.40145767  1
  Al  Al24  1  0.55489107  0.87546749  0.17258094  1
  Al  Al25  1  0.21831026  0.86739936  0.64300488  1
  Al  Al26  1  0.79206609  0.74980869  0.40982803  1
  Al  Al27  1  0.89466440  0.86719278  0.16237189  1
  Gd  Gd28  1  0.89144189  0.20627234  0.66336670  1
  Gd  Gd29  1  0.21979697  0.20352135  0.65901187  1
  Gd  Gd30  1  0.77021665  0.09701807  0.38620230  1
  Gd  Gd31  1  0.54892869  0.21614578  0.68445267  1
  Gd  Gd32  1  0.88920643  0.53927969  0.14508594  1
  Gd  Gd33  1  0.11406834  0.74935251  0.89491035  1
  Gd  Gd34  1  0.45228832  0.75007320  0.90876924  1
  Gd  Gd35  1  0.55914274  0.86726577  0.63556325  1
  N  N36  1  0.21494574  0.21232291  0.34616906  1
  N  N37  1  0.11453017  0.09055510  0.11032986  1
  N  N38  1  0.89468320  0.19555322  0.88364771  1
  N  N39  1  0.78326395  0.07490490  0.60111429  1
  N  N40  1  0.51836754  0.23061530  0.32648715  1
  N  N41  1  0.44177600  0.08723878  0.11800958  1
  N  N42  1  0.22826854  0.19570021  0.88057844  1
  N  N43  1  0.12174400  0.06808747  0.57227750  1
  N  N44  1  0.89893349  0.22874699  0.34071068  1
  N  N45  1  0.78489048  0.08917297  0.12302499  1
  N  N46  1  0.55946069  0.19752675  0.91251568  1
  N  N47  1  0.44476678  0.10980801  0.56868473  1
  N  N48  1  0.21881777  0.54131686  0.34967830  1
  N  N49  1  0.14568089  0.41585735  0.09483637  1
  N  N50  1  0.89076108  0.53771261  0.85777434  1
  N  N51  1  0.76298486  0.46191606  0.59133536  1
  N  N52  1  0.55718466  0.53527538  0.34907612  1
  N  N53  1  0.43628793  0.44496198  0.10079727  1
  N  N54  1  0.25291768  0.49008427  0.82907655  1
  N  N55  1  0.09989453  0.44941847  0.58922670  1
  N  N56  1  0.88958739  0.53982609  0.35904902  1
  N  N57  1  0.75424998  0.41932031  0.09159198  1
  N  N58  1  0.57227740  0.49420696  0.82877658  1
  N  N59  1  0.43358983  0.44547525  0.57968986  1
  N  N60  1  0.21766484  0.86986981  0.35089367  1
  N  N61  1  0.11419457  0.76057190  0.11264370  1
  N  N62  1  0.86366566  0.89040131  0.84443037  1
  N  N63  1  0.81010592  0.74929437  0.59206197  1
  N  N64  1  0.56056355  0.86873409  0.36096278  1
  N  N65  1  0.44539663  0.76244220  0.12738534  1
  N  N66  1  0.21063689  0.90128654  0.82917837  1
  N  N67  1  0.11004403  0.75726507  0.60538027  1
  N  N68  1  0.90626296  0.83944440  0.34222726  1
  N  N69  1  0.76135816  0.79437615  0.09327688  1
  N  N70  1  0.55904827  0.89172970  0.85518086  1
  N  N71  1  0.42608523  0.74586736  0.58766197  1
