# generated using pymatgen
data_Gd2Al7N9
_symmetry_space_group_name_H-M   'P 1'
_cell_length_a   9.75886936
_cell_length_b   9.87923631
_cell_length_c   10.80389255
_cell_angle_alpha   89.28423526
_cell_angle_beta   88.96666679
_cell_angle_gamma   59.87132511
_symmetry_Int_Tables_number   1
_chemical_formula_structural   Gd2Al7N9
_chemical_formula_sum   'Gd8 Al28 N36'
_cell_volume   900.73102531
_cell_formula_units_Z   4
loop_
 _symmetry_equiv_pos_site_id
 _symmetry_equiv_pos_as_xyz
  1  'x, y, z'
loop_
 _atom_site_type_symbol
 _atom_site_label
 _atom_site_symmetry_multiplicity
 _atom_site_fract_x
 _atom_site_fract_y
 _atom_site_fract_z
 _atom_site_occupancy
  Al  Al0  1  0.10824630  0.09645318  0.33093301  1
  Al  Al1  1  0.23227684  0.20153228  0.15582987  1
  Al  Al2  1  0.76873819  0.09380496  0.92361109  1
  Al  Al3  1  0.44457920  0.09355744  0.37904946  1
  Al  Al4  1  0.54472381  0.21562367  0.15118919  1
  Al  Al5  1  0.12552377  0.08617680  0.84155734  1
  Al  Al6  1  0.89927647  0.19919717  0.07859310  1
  Al  Al7  1  0.43609322  0.10303374  0.92589015  1
  Al  Al8  1  0.11630836  0.43689004  0.31795227  1
  Al  Al9  1  0.23239101  0.53887918  0.08296277  1
  Al  Al10  1  0.77826756  0.41367832  0.89884945  1
  Al  Al11  1  0.88412287  0.55622128  0.67370883  1
  Al  Al12  1  0.44682381  0.43084660  0.39386890  1
  Al  Al13  1  0.56439265  0.52428203  0.15515526  1
  Al  Al14  1  0.13346638  0.41507959  0.83185894  1
  Al  Al15  1  0.21205370  0.54836004  0.56491009  1
  Al  Al16  1  0.78456714  0.45024881  0.41031453  1
  Al  Al17  1  0.46281126  0.40595935  0.91243592  1
  Al  Al18  1  0.54078949  0.53895433  0.64962374  1
  Al  Al19  1  0.11507150  0.75028468  0.33465786  1
  Al  Al20  1  0.21589878  0.87826467  0.09569160  1
  Al  Al21  1  0.77169042  0.78629197  0.84575083  1
  Al  Al22  1  0.89371953  0.85585118  0.56717215  1
  Al  Al23  1  0.44139907  0.76413031  0.31572147  1
  Al  Al24  1  0.55927429  0.87899728  0.09923413  1
  Al  Al25  1  0.21589415  0.86537560  0.57553768  1
  Al  Al26  1  0.78121991  0.75810561  0.31712003  1
  Al  Al27  1  0.89516274  0.87329075  0.09343617  1
  Gd  Gd28  1  0.85674918  0.22004320  0.64408524  1
  Gd  Gd29  1  0.17048772  0.22110022  0.56417791  1
  Gd  Gd30  1  0.78843120  0.10003679  0.36589393  1
  Gd  Gd31  1  0.52639335  0.20178696  0.65818335  1
  Gd  Gd32  1  0.89851685  0.54204407  0.09489984  1
  Gd  Gd33  1  0.11181109  0.76581727  0.81827341  1
  Gd  Gd34  1  0.45718955  0.74517480  0.87193697  1
  Gd  Gd35  1  0.57063695  0.82754008  0.56942747  1
  N  N36  1  0.22393992  0.20488034  0.33981742  1
  N  N37  1  0.10355746  0.09736457  0.15249330  1
  N  N38  1  0.90004116  0.19070728  0.89121326  1
  N  N39  1  0.76878066  0.07321257  0.57942057  1
  N  N40  1  0.52654757  0.22507966  0.32688665  1
  N  N41  1  0.44207342  0.10027399  0.10445034  1
  N  N42  1  0.22901426  0.20166876  0.86485349  1
  N  N43  1  0.11322872  0.05414304  0.66863086  1
  N  N44  1  0.92134990  0.22678415  0.42282920  1
  N  N45  1  0.77810122  0.09998090  0.11178649  1
  N  N46  1  0.55853921  0.19362367  0.87432790  1
  N  N47  1  0.42542238  0.08743922  0.55308481  1
  N  N48  1  0.21968016  0.53706175  0.38595603  1
  N  N49  1  0.15203103  0.41661395  0.14529258  1
  N  N50  1  0.88535667  0.53416660  0.85826770  1
  N  N51  1  0.74741977  0.50175739  0.58671784  1
  N  N52  1  0.56459287  0.53164935  0.33390904  1
  N  N53  1  0.45665335  0.42826471  0.09111774  1
  N  N54  1  0.23517605  0.51850668  0.90306924  1
  N  N55  1  0.10933683  0.45420352  0.65467374  1
  N  N56  1  0.89272530  0.53782007  0.33072954  1
  N  N57  1  0.76263776  0.41781255  0.07600211  1
  N  N58  1  0.58520959  0.47533925  0.82125339  1
  N  N59  1  0.44201723  0.44223689  0.57140768  1
  N  N60  1  0.22247989  0.87438318  0.38611058  1
  N  N61  1  0.11566791  0.75760603  0.14998810  1
  N  N62  1  0.87902316  0.87586636  0.91729592  1
  N  N63  1  0.79584658  0.77323860  0.67213954  1
  N  N64  1  0.55674813  0.86514991  0.35517292  1
  N  N65  1  0.44529614  0.76079513  0.13417598  1
  N  N66  1  0.20748341  0.89463403  0.92512545  1
  N  N67  1  0.10751655  0.75842737  0.60590851  1
  N  N68  1  0.90058236  0.83679320  0.38917833  1
  N  N69  1  0.76855337  0.79419946  0.14659232  1
  N  N70  1  0.57011200  0.88219505  0.91503696  1
  N  N71  1  0.40898005  0.75433576  0.66046795  1
