# generated using pymatgen
data_Gd2Al7N9
_symmetry_space_group_name_H-M   'P 1'
_cell_length_a   9.84876838
_cell_length_b   9.87820817
_cell_length_c   10.56290344
_cell_angle_alpha   88.99618622
_cell_angle_beta   89.76980580
_cell_angle_gamma   60.09114068
_symmetry_Int_Tables_number   1
_chemical_formula_structural   Gd2Al7N9
_chemical_formula_sum   'Gd8 Al28 N36'
_cell_volume   890.63359084
_cell_formula_units_Z   4
loop_
 _symmetry_equiv_pos_site_id
 _symmetry_equiv_pos_as_xyz
  1  'x, y, z'
loop_
 _atom_site_type_symbol
 _atom_site_label
 _atom_site_symmetry_multiplicity
 _atom_site_fract_x
 _atom_site_fract_y
 _atom_site_fract_z
 _atom_site_occupancy
  Al  Al0  1  0.11482774  0.09701685  0.29011320  1
  Al  Al1  1  0.22592908  0.20268995  0.05186933  1
  Al  Al2  1  0.76851840  0.10456652  0.87891762  1
  Al  Al3  1  0.43747868  0.09455565  0.28086926  1
  Al  Al4  1  0.53981726  0.21712267  0.05350203  1
  Al  Al5  1  0.11175550  0.09311083  0.81703023  1
  Al  Al6  1  0.89035163  0.20888913  0.05182424  1
  Al  Al7  1  0.44511421  0.09688135  0.81877524  1
  Al  Al8  1  0.11794080  0.42026481  0.29127848  1
  Al  Al9  1  0.23005048  0.53418245  0.05589369  1
  Al  Al10  1  0.76618900  0.43198482  0.81214538  1
  Al  Al11  1  0.89317246  0.54947629  0.64626602  1
  Al  Al12  1  0.43852152  0.42708676  0.29625216  1
  Al  Al13  1  0.55218895  0.53035515  0.05852606  1
  Al  Al14  1  0.12879273  0.42068377  0.81451546  1
  Al  Al15  1  0.22044873  0.54617434  0.54627637  1
  Al  Al16  1  0.78112548  0.42498143  0.29781595  1
  Al  Al17  1  0.44321268  0.43052084  0.81129254  1
  Al  Al18  1  0.54359996  0.55219433  0.54766499  1
  Al  Al19  1  0.11652154  0.74536468  0.30275573  1
  Al  Al20  1  0.21941445  0.87298241  0.06336191  1
  Al  Al21  1  0.77316597  0.78451595  0.81337595  1
  Al  Al22  1  0.90591006  0.84924682  0.53241450  1
  Al  Al23  1  0.44504201  0.75691736  0.29298599  1
  Al  Al24  1  0.55471321  0.87968176  0.05880931  1
  Al  Al25  1  0.22075980  0.86616106  0.53164119  1
  Al  Al26  1  0.78236075  0.75147142  0.28545481  1
  Al  Al27  1  0.89161462  0.87207838  0.05471851  1
  Gd  Gd28  1  0.88338524  0.21143618  0.57183117  1
  Gd  Gd29  1  0.21188559  0.20488275  0.55489135  1
  Gd  Gd30  1  0.78387386  0.08713366  0.30602806  1
  Gd  Gd31  1  0.53875536  0.21973060  0.55834426  1
  Gd  Gd32  1  0.88862973  0.53764589  0.06375351  1
  Gd  Gd33  1  0.10392759  0.76668492  0.78852066  1
  Gd  Gd34  1  0.44290068  0.76562635  0.80216995  1
  Gd  Gd35  1  0.57997514  0.85990320  0.53856451  1
  N  N36  1  0.22746692  0.19751033  0.33762365  1
  N  N37  1  0.10757165  0.09835789  0.10765574  1
  N  N38  1  0.88770103  0.21299249  0.85969968  1
  N  N39  1  0.78630342  0.06197822  0.54888837  1
  N  N40  1  0.52549099  0.21317762  0.34153187  1
  N  N41  1  0.44158368  0.09663132  0.09930194  1
  N  N42  1  0.22017049  0.20529696  0.86606020  1
  N  N43  1  0.12634965  0.05055090  0.63803161  1
  N  N44  1  0.91168525  0.21681826  0.35851829  1
  N  N45  1  0.77465910  0.10028373  0.07225869  1
  N  N46  1  0.54710907  0.21427187  0.86403253  1
  N  N47  1  0.44328720  0.08132473  0.64191881  1
  N  N48  1  0.22768460  0.52703280  0.36065021  1
  N  N49  1  0.14473194  0.40967920  0.11085255  1
  N  N50  1  0.89156046  0.53962675  0.83757381  1
  N  N51  1  0.74735309  0.47613806  0.63171598  1
  N  N52  1  0.55724954  0.53036667  0.36016988  1
  N  N53  1  0.44133958  0.42929830  0.11481484  1
  N  N54  1  0.23549484  0.52012595  0.87690789  1
  N  N55  1  0.11361489  0.44930612  0.63208846  1
  N  N56  1  0.89278871  0.53304668  0.30729118  1
  N  N57  1  0.76090750  0.40812225  0.11749022  1
  N  N58  1  0.56399983  0.51534022  0.87959791  1
  N  N59  1  0.42515950  0.46856126  0.62992007  1
  N  N60  1  0.21921102  0.87352023  0.34426434  1
  N  N61  1  0.11138890  0.75612058  0.11426820  1
  N  N62  1  0.87074725  0.88794641  0.87645428  1
  N  N63  1  0.81400255  0.76048773  0.63718692  1
  N  N64  1  0.55584164  0.87040728  0.32423596  1
  N  N65  1  0.44701007  0.75514722  0.10677970  1
  N  N66  1  0.20685060  0.89321214  0.88791953  1
  N  N67  1  0.11634132  0.75859367  0.57224947  1
  N  N68  1  0.90491092  0.82852708  0.35428549  1
  N  N69  1  0.76604033  0.79198319  0.10967589  1
  N  N70  1  0.56740446  0.88503592  0.87611254  1
  N  N71  1  0.42843390  0.76195629  0.58361658  1
