# generated using pymatgen
data_Gd2Al7N9
_symmetry_space_group_name_H-M   'P 1'
_cell_length_a   9.80161542
_cell_length_b   9.86910172
_cell_length_c   10.75272240
_cell_angle_alpha   89.44967509
_cell_angle_beta   89.29552206
_cell_angle_gamma   60.10381814
_symmetry_Int_Tables_number   1
_chemical_formula_structural   Gd2Al7N9
_chemical_formula_sum   'Gd8 Al28 N36'
_cell_volume   901.65710883
_cell_formula_units_Z   4
loop_
 _symmetry_equiv_pos_site_id
 _symmetry_equiv_pos_as_xyz
  1  'x, y, z'
loop_
 _atom_site_type_symbol
 _atom_site_label
 _atom_site_symmetry_multiplicity
 _atom_site_fract_x
 _atom_site_fract_y
 _atom_site_fract_z
 _atom_site_occupancy
  Al  Al0  1  0.10830662  0.10377966  0.30823044  1
  Al  Al1  1  0.21622691  0.20834161  0.07505163  1
  Al  Al2  1  0.77003315  0.09394161  0.90536768  1
  Al  Al3  1  0.43663467  0.09629411  0.29587347  1
  Al  Al4  1  0.54746565  0.22135111  0.12523557  1
  Al  Al5  1  0.11934551  0.08592455  0.82872486  1
  Al  Al6  1  0.89453204  0.20272114  0.06184755  1
  Al  Al7  1  0.44459102  0.09613081  0.90186908  1
  Al  Al8  1  0.11934901  0.42580151  0.29723353  1
  Al  Al9  1  0.22815942  0.54052591  0.06620376  1
  Al  Al10  1  0.77311462  0.41618622  0.87895304  1
  Al  Al11  1  0.88897830  0.55130382  0.65415506  1
  Al  Al12  1  0.44430168  0.43179934  0.37179139  1
  Al  Al13  1  0.55992709  0.53000786  0.13653265  1
  Al  Al14  1  0.12931410  0.41649483  0.82143552  1
  Al  Al15  1  0.21578777  0.54457187  0.54632333  1
  Al  Al16  1  0.78357764  0.45003030  0.38846626  1
  Al  Al17  1  0.45780097  0.41355522  0.89534027  1
  Al  Al18  1  0.54528083  0.53939541  0.62370556  1
  Al  Al19  1  0.11435451  0.74881453  0.31694042  1
  Al  Al20  1  0.21477530  0.87695391  0.07691555  1
  Al  Al21  1  0.77297984  0.78270641  0.82720772  1
  Al  Al22  1  0.90015464  0.85183646  0.54817895  1
  Al  Al23  1  0.43750503  0.76731463  0.29964750  1
  Al  Al24  1  0.55834190  0.87467202  0.07970176  1
  Al  Al25  1  0.22028982  0.86439103  0.55536726  1
  Al  Al26  1  0.78049432  0.75790259  0.29914263  1
  Al  Al27  1  0.89341216  0.87341960  0.07549746  1
  Gd  Gd28  1  0.87114284  0.21722331  0.61386971  1
  Gd  Gd29  1  0.19823332  0.21000343  0.55201263  1
  Gd  Gd30  1  0.78478369  0.09710203  0.34587916  1
  Gd  Gd31  1  0.54452352  0.20758986  0.64648180  1
  Gd  Gd32  1  0.89199645  0.54390125  0.08120956  1
  Gd  Gd33  1  0.10565548  0.76435721  0.79904395  1
  Gd  Gd34  1  0.45099802  0.75209490  0.84092474  1
  Gd  Gd35  1  0.57542980  0.83938799  0.55006791  1
  N  N36  1  0.22430978  0.20509298  0.33708777  1
  N  N37  1  0.10208641  0.10046468  0.12800810  1
  N  N38  1  0.89634489  0.19302072  0.87205643  1
  N  N39  1  0.77946577  0.06784781  0.56051032  1
  N  N40  1  0.52508574  0.22787970  0.30146231  1
  N  N41  1  0.43997344  0.09745679  0.09876671  1
  N  N42  1  0.21716017  0.20550338  0.88839605  1
  N  N43  1  0.12148282  0.05321042  0.65372633  1
  N  N44  1  0.91459351  0.22695840  0.39326538  1
  N  N45  1  0.77780044  0.10032289  0.09307658  1
  N  N46  1  0.55658157  0.19790264  0.86568164  1
  N  N47  1  0.43390443  0.07774327  0.60699654  1
  N  N48  1  0.21783503  0.53418153  0.36519729  1
  N  N49  1  0.14837992  0.41420746  0.12223956  1
  N  N50  1  0.88485017  0.53269129  0.84140084  1
  N  N51  1  0.75299322  0.49674560  0.56693391  1
  N  N52  1  0.56167076  0.53587055  0.31537997  1
  N  N53  1  0.45138412  0.43471932  0.07316061  1
  N  N54  1  0.23287851  0.51969359  0.88602016  1
  N  N55  1  0.11450358  0.44895680  0.64328436  1
  N  N56  1  0.89201983  0.53720377  0.30915366  1
  N  N57  1  0.75650709  0.41981299  0.05688135  1
  N  N58  1  0.57878337  0.48120730  0.80121209  1
  N  N59  1  0.44196311  0.44451656  0.54851489  1
  N  N60  1  0.21942185  0.87757143  0.36524665  1
  N  N61  1  0.11261681  0.75841230  0.13145794  1
  N  N62  1  0.87579550  0.87710319  0.89926095  1
  N  N63  1  0.80707962  0.76635099  0.65446362  1
  N  N64  1  0.55154642  0.87442368  0.33442252  1
  N  N65  1  0.44193140  0.76323123  0.11640955  1
  N  N66  1  0.20578053  0.89079997  0.90510038  1
  N  N67  1  0.11333647  0.75552735  0.58596251  1
  N  N68  1  0.90170927  0.83334598  0.37066254  1
  N  N69  1  0.76519971  0.79666157  0.12846386  1
  N  N70  1  0.57176918  0.87950115  0.89853052  1
  N  N71  1  0.41758236  0.75396797  0.63049859  1
