# generated using pymatgen
data_Gd2Al7N9
_symmetry_space_group_name_H-M   'P 1'
_cell_length_a   9.82866685
_cell_length_b   9.96795153
_cell_length_c   10.58997850
_cell_angle_alpha   89.38092600
_cell_angle_beta   89.40176228
_cell_angle_gamma   59.80497214
_symmetry_Int_Tables_number   1
_chemical_formula_structural   Gd2Al7N9
_chemical_formula_sum   'Gd8 Al28 N36'
_cell_volume   896.67849704
_cell_formula_units_Z   4
loop_
 _symmetry_equiv_pos_site_id
 _symmetry_equiv_pos_as_xyz
  1  'x, y, z'
loop_
 _atom_site_type_symbol
 _atom_site_label
 _atom_site_symmetry_multiplicity
 _atom_site_fract_x
 _atom_site_fract_y
 _atom_site_fract_z
 _atom_site_occupancy
  Al  Al0  1  0.11185821  0.10965453  0.31003023  1
  Al  Al1  1  0.22918171  0.20501886  0.06421338  1
  Al  Al2  1  0.76029982  0.09826126  0.89611314  1
  Al  Al3  1  0.43941525  0.09123742  0.30044055  1
  Al  Al4  1  0.54567255  0.21904214  0.13650178  1
  Al  Al5  1  0.11579880  0.08597847  0.82951701  1
  Al  Al6  1  0.89327481  0.20282198  0.05961753  1
  Al  Al7  1  0.44072544  0.08867814  0.82007453  1
  Al  Al8  1  0.12235080  0.42360457  0.29920243  1
  Al  Al9  1  0.23463187  0.53459321  0.06736816  1
  Al  Al10  1  0.77404699  0.41759233  0.88049060  1
  Al  Al11  1  0.88868434  0.55243022  0.65356672  1
  Al  Al12  1  0.44510902  0.43729726  0.36446723  1
  Al  Al13  1  0.56106023  0.53024092  0.13898576  1
  Al  Al14  1  0.12785486  0.41885741  0.82239198  1
  Al  Al15  1  0.21525360  0.54518356  0.54619769  1
  Al  Al16  1  0.78462971  0.45375859  0.39161594  1
  Al  Al17  1  0.45758704  0.40344862  0.86553320  1
  Al  Al18  1  0.54122356  0.54276228  0.62718009  1
  Al  Al19  1  0.11668386  0.74641162  0.31364902  1
  Al  Al20  1  0.21295160  0.88076350  0.08090287  1
  Al  Al21  1  0.77333975  0.78461170  0.82602193  1
  Al  Al22  1  0.90171192  0.84787888  0.54460277  1
  Al  Al23  1  0.44007611  0.77049399  0.30047818  1
  Al  Al24  1  0.55605061  0.88962327  0.06970240  1
  Al  Al25  1  0.21494513  0.86465975  0.55565449  1
  Al  Al26  1  0.77912863  0.76055057  0.30108120  1
  Al  Al27  1  0.89144143  0.87457118  0.07288902  1
  Gd  Gd28  1  0.86086686  0.22000783  0.61958390  1
  Gd  Gd29  1  0.19213571  0.20709827  0.56401901  1
  Gd  Gd30  1  0.80558974  0.09129370  0.33627471  1
  Gd  Gd31  1  0.54222641  0.19677893  0.58711718  1
  Gd  Gd32  1  0.89092227  0.54353907  0.08568844  1
  Gd  Gd33  1  0.10827230  0.76609368  0.80061489  1
  Gd  Gd34  1  0.45207100  0.74634631  0.85701043  1
  Gd  Gd35  1  0.56893899  0.83176839  0.56293681  1
  N  N36  1  0.22903819  0.20599102  0.35091882  1
  N  N37  1  0.10326004  0.10446073  0.12771127  1
  N  N38  1  0.89270585  0.19555276  0.87114479  1
  N  N39  1  0.79124675  0.06127905  0.55281379  1
  N  N40  1  0.53689617  0.21688620  0.32589434  1
  N  N41  1  0.44195792  0.09862664  0.11829766  1
  N  N42  1  0.21877700  0.20435647  0.87855609  1
  N  N43  1  0.11096412  0.05231252  0.65379564  1
  N  N44  1  0.91765440  0.23260598  0.39683329  1
  N  N45  1  0.77282202  0.10294513  0.09083592  1
  N  N46  1  0.55739018  0.19523676  0.82748681  1
  N  N47  1  0.42591696  0.06705413  0.64444257  1
  N  N48  1  0.22036478  0.53365249  0.36250765  1
  N  N49  1  0.14979944  0.41057158  0.11972505  1
  N  N50  1  0.88549229  0.53471446  0.84349619  1
  N  N51  1  0.74824903  0.50246273  0.57049148  1
  N  N52  1  0.56336183  0.54183017  0.31956073  1
  N  N53  1  0.45046752  0.43071144  0.09631886  1
  N  N54  1  0.23767329  0.51723122  0.88404564  1
  N  N55  1  0.11329313  0.44911574  0.64113289  1
  N  N56  1  0.89417111  0.53992959  0.31303816  1
  N  N57  1  0.75733176  0.41942867  0.05975991  1
  N  N58  1  0.58135304  0.48310602  0.80326571  1
  N  N59  1  0.43883118  0.45075296  0.55071979  1
  N  N60  1  0.21911549  0.88015775  0.36412699  1
  N  N61  1  0.11312187  0.75847489  0.12807694  1
  N  N62  1  0.87355192  0.88179817  0.89496158  1
  N  N63  1  0.80669908  0.76543493  0.65076133  1
  N  N64  1  0.55316748  0.87332356  0.34781610  1
  N  N65  1  0.44463763  0.76665848  0.11415621  1
  N  N66  1  0.20319526  0.89455807  0.90710439  1
  N  N67  1  0.11269712  0.75337572  0.58563668  1
  N  N68  1  0.90556436  0.83217870  0.36575290  1
  N  N69  1  0.76273244  0.79848223  0.12609536  1
  N  N70  1  0.56690593  0.88647179  0.88842259  1
  N  N71  1  0.40752479  0.75421653  0.64057758  1
