# generated using pymatgen
data_Gd2Al7N9
_symmetry_space_group_name_H-M   'P 1'
_cell_length_a   9.82519405
_cell_length_b   9.95683302
_cell_length_c   10.60044810
_cell_angle_alpha   89.42317178
_cell_angle_beta   89.40929098
_cell_angle_gamma   59.82267626
_symmetry_Int_Tables_number   1
_chemical_formula_structural   Gd2Al7N9
_chemical_formula_sum   'Gd8 Al28 N36'
_cell_volume   896.41354916
_cell_formula_units_Z   4
loop_
 _symmetry_equiv_pos_site_id
 _symmetry_equiv_pos_as_xyz
  1  'x, y, z'
loop_
 _atom_site_type_symbol
 _atom_site_label
 _atom_site_symmetry_multiplicity
 _atom_site_fract_x
 _atom_site_fract_y
 _atom_site_fract_z
 _atom_site_occupancy
  Al  Al0  1  0.11188100  0.10934672  0.30987993  1
  Al  Al1  1  0.22921373  0.20483748  0.06428467  1
  Al  Al2  1  0.76072598  0.09775352  0.89623454  1
  Al  Al3  1  0.43949865  0.09229655  0.30038256  1
  Al  Al4  1  0.54573264  0.21919324  0.13537265  1
  Al  Al5  1  0.11590520  0.08581361  0.82937684  1
  Al  Al6  1  0.89367495  0.20252437  0.05943622  1
  Al  Al7  1  0.44034037  0.08857505  0.82147078  1
  Al  Al8  1  0.12258288  0.42354202  0.29921003  1
  Al  Al9  1  0.23218678  0.53599077  0.06625053  1
  Al  Al10  1  0.77397716  0.41742795  0.88004840  1
  Al  Al11  1  0.88849532  0.55224357  0.65324188  1
  Al  Al12  1  0.44598537  0.43718700  0.36953205  1
  Al  Al13  1  0.56079507  0.52932182  0.13699447  1
  Al  Al14  1  0.12797685  0.41907551  0.82183326  1
  Al  Al15  1  0.21455487  0.54541701  0.54570122  1
  Al  Al16  1  0.78461781  0.45336843  0.39109960  1
  Al  Al17  1  0.45917924  0.40378221  0.88050735  1
  Al  Al18  1  0.54091856  0.54211417  0.62876345  1
  Al  Al19  1  0.11665030  0.74675680  0.31365808  1
  Al  Al20  1  0.21300614  0.88081346  0.08055046  1
  Al  Al21  1  0.77345276  0.78408388  0.82591369  1
  Al  Al22  1  0.90138266  0.84812284  0.54441901  1
  Al  Al23  1  0.44004066  0.77021994  0.29972827  1
  Al  Al24  1  0.55609215  0.88940924  0.06961161  1
  Al  Al25  1  0.21529674  0.86429926  0.55556231  1
  Al  Al26  1  0.77900848  0.76058017  0.30092647  1
  Al  Al27  1  0.89135626  0.87461612  0.07284462  1
  Gd  Gd28  1  0.86199974  0.21983467  0.61900874  1
  Gd  Gd29  1  0.19342290  0.20659510  0.56347908  1
  Gd  Gd30  1  0.80340448  0.09235417  0.33694841  1
  Gd  Gd31  1  0.54339528  0.19962456  0.59821470  1
  Gd  Gd32  1  0.89128607  0.54338329  0.08538520  1
  Gd  Gd33  1  0.10838022  0.76563719  0.80032113  1
  Gd  Gd34  1  0.45212919  0.74588786  0.85669721  1
  Gd  Gd35  1  0.56899485  0.83195948  0.56264030  1
  N  N36  1  0.22897290  0.20595556  0.35068871  1
  N  N37  1  0.10344119  0.10436299  0.12767272  1
  N  N38  1  0.89300381  0.19513586  0.87097684  1
  N  N39  1  0.79015764  0.06183068  0.55310499  1
  N  N40  1  0.53523317  0.22045681  0.32229152  1
  N  N41  1  0.44194232  0.09849163  0.11807787  1
  N  N42  1  0.21857204  0.20440703  0.87867579  1
  N  N43  1  0.11166219  0.05225988  0.65356523  1
  N  N44  1  0.91759888  0.23226006  0.39660198  1
  N  N45  1  0.77331986  0.10267877  0.09084160  1
  N  N46  1  0.55646642  0.19640097  0.83006196  1
  N  N47  1  0.42679459  0.06748787  0.64479252  1
  N  N48  1  0.22092015  0.53375522  0.36173129  1
  N  N49  1  0.15032193  0.41042440  0.12026591  1
  N  N50  1  0.88530671  0.53452537  0.84291252  1
  N  N51  1  0.74753321  0.50251213  0.57001163  1
  N  N52  1  0.56237823  0.54045491  0.31722170  1
  N  N53  1  0.45375527  0.42838919  0.07989855  1
  N  N54  1  0.23535180  0.51835777  0.88395304  1
  N  N55  1  0.11323917  0.44888843  0.64048326  1
  N  N56  1  0.89406768  0.53981270  0.31281894  1
  N  N57  1  0.75801730  0.41920112  0.05947670  1
  N  N58  1  0.58070587  0.48190212  0.80414395  1
  N  N59  1  0.43852345  0.45175257  0.54952868  1
  N  N60  1  0.21942996  0.87988325  0.36406207  1
  N  N61  1  0.11340479  0.75825116  0.12819278  1
  N  N62  1  0.87364676  0.88130238  0.89505683  1
  N  N63  1  0.80663645  0.76541631  0.65065220  1
  N  N64  1  0.55304907  0.87338985  0.34758047  1
  N  N65  1  0.44456821  0.76618770  0.11377924  1
  N  N66  1  0.20325675  0.89436591  0.90702586  1
  N  N67  1  0.11242138  0.75351354  0.58530626  1
  N  N68  1  0.90533209  0.83246273  0.36564832  1
  N  N69  1  0.76270206  0.79838283  0.12611664  1
  N  N70  1  0.56703032  0.88603745  0.88851482  1
  N  N71  1  0.40763737  0.75401150  0.64075385  1
