# generated using pymatgen
data_Gd2Al7N9
_symmetry_space_group_name_H-M   'P 1'
_cell_length_a   9.78224275
_cell_length_b   9.89948468
_cell_length_c   10.72318711
_cell_angle_alpha   89.45505036
_cell_angle_beta   89.41102585
_cell_angle_gamma   59.89956698
_symmetry_Int_Tables_number   1
_chemical_formula_structural   Gd2Al7N9
_chemical_formula_sum   'Gd8 Al28 N36'
_cell_volume   898.33160535
_cell_formula_units_Z   4
loop_
 _symmetry_equiv_pos_site_id
 _symmetry_equiv_pos_as_xyz
  1  'x, y, z'
loop_
 _atom_site_type_symbol
 _atom_site_label
 _atom_site_symmetry_multiplicity
 _atom_site_fract_x
 _atom_site_fract_y
 _atom_site_fract_z
 _atom_site_occupancy
  Al  Al0  1  0.10995718  0.09600750  0.32911855  1
  Al  Al1  1  0.22815639  0.20260937  0.13890767  1
  Al  Al2  1  0.76562370  0.09498294  0.92647964  1
  Al  Al3  1  0.43977144  0.10074302  0.38159824  1
  Al  Al4  1  0.54404179  0.21518798  0.14970018  1
  Al  Al5  1  0.12652285  0.08703041  0.84845936  1
  Al  Al6  1  0.89762532  0.19934183  0.08131119  1
  Al  Al7  1  0.44002174  0.09513509  0.92310802  1
  Al  Al8  1  0.11923362  0.43270252  0.31651014  1
  Al  Al9  1  0.23104553  0.54067670  0.08546480  1
  Al  Al10  1  0.77747273  0.41329097  0.90075276  1
  Al  Al11  1  0.88948168  0.54912568  0.67367511  1
  Al  Al12  1  0.44691876  0.42824701  0.39704589  1
  Al  Al13  1  0.56522265  0.52372302  0.16016917  1
  Al  Al14  1  0.13340569  0.41475867  0.83969787  1
  Al  Al15  1  0.21484045  0.54499466  0.56970210  1
  Al  Al16  1  0.78692054  0.44713831  0.41473039  1
  Al  Al17  1  0.46058940  0.41082102  0.91630733  1
  Al  Al18  1  0.54247746  0.53742701  0.65297929  1
  Al  Al19  1  0.11764323  0.74867554  0.33691060  1
  Al  Al20  1  0.21598283  0.87693850  0.09866288  1
  Al  Al21  1  0.77037271  0.79240512  0.83321768  1
  Al  Al22  1  0.90033755  0.85309882  0.56655500  1
  Al  Al23  1  0.43890815  0.75763172  0.32869888  1
  Al  Al24  1  0.54996552  0.88519542  0.16329205  1
  Al  Al25  1  0.21845669  0.86459996  0.58047575  1
  Al  Al26  1  0.79043120  0.75200067  0.32590959  1
  Al  Al27  1  0.89177756  0.87419558  0.09687582  1
  Gd  Gd28  1  0.85881467  0.21601348  0.64922711  1
  Gd  Gd29  1  0.16424467  0.22438162  0.55983934  1
  Gd  Gd30  1  0.78756533  0.10081402  0.36779710  1
  Gd  Gd31  1  0.52676147  0.20084379  0.66436628  1
  Gd  Gd32  1  0.89460677  0.54683887  0.09305964  1
  Gd  Gd33  1  0.11108143  0.76757393  0.82246305  1
  Gd  Gd34  1  0.46434400  0.74757230  0.87970404  1
  Gd  Gd35  1  0.56326616  0.84325173  0.59418947  1
  N  N36  1  0.22404599  0.20445704  0.33520009  1
  N  N37  1  0.10261604  0.09511881  0.15156432  1
  N  N38  1  0.89841731  0.18975205  0.89332856  1
  N  N39  1  0.76908394  0.06970129  0.58390439  1
  N  N40  1  0.52604208  0.22502943  0.32672962  1
  N  N41  1  0.44695496  0.09022110  0.10392432  1
  N  N42  1  0.21854209  0.20811948  0.89278032  1
  N  N43  1  0.11756331  0.05572804  0.67288172  1
  N  N44  1  0.92435441  0.22350919  0.42359928  1
  N  N45  1  0.77739299  0.10003281  0.11521033  1
  N  N46  1  0.55408221  0.19927506  0.88321031  1
  N  N47  1  0.41897101  0.09651533  0.55341631  1
  N  N48  1  0.22028906  0.53511638  0.38801674  1
  N  N49  1  0.14927172  0.41839997  0.14300222  1
  N  N50  1  0.88146102  0.53631150  0.86019706  1
  N  N51  1  0.75139613  0.49353496  0.59131124  1
  N  N52  1  0.56596252  0.52913291  0.34003373  1
  N  N53  1  0.45471534  0.43082491  0.09621140  1
  N  N54  1  0.23407833  0.52172085  0.90525774  1
  N  N55  1  0.11606331  0.44571072  0.66050658  1
  N  N56  1  0.89610476  0.53464674  0.33683475  1
  N  N57  1  0.76263028  0.41800619  0.08001272  1
  N  N58  1  0.58367162  0.47756892  0.82572316  1
  N  N59  1  0.44410667  0.43893613  0.57516341  1
  N  N60  1  0.22271428  0.87381164  0.38990047  1
  N  N61  1  0.11455295  0.75795710  0.15135312  1
  N  N62  1  0.87312831  0.87699806  0.91935127  1
  N  N63  1  0.81413561  0.75922148  0.66268719  1
  N  N64  1  0.55483807  0.86868757  0.35103369  1
  N  N65  1  0.44504664  0.76114053  0.14254414  1
  N  N66  1  0.21248003  0.89263452  0.92729344  1
  N  N67  1  0.11247750  0.75596459  0.60877343  1
  N  N68  1  0.90502089  0.83832408  0.38889401  1
  N  N69  1  0.76634056  0.79506701  0.15245894  1
  N  N70  1  0.55399346  0.90575445  0.83781069  1
  N  N71  1  0.41058880  0.75011173  0.66362442  1
