# generated using pymatgen
data_Gd2Al7N9
_symmetry_space_group_name_H-M   'P 1'
_cell_length_a   9.82342342
_cell_length_b   9.91155502
_cell_length_c   10.64102652
_cell_angle_alpha   89.12927138
_cell_angle_beta   89.63736957
_cell_angle_gamma   59.96471892
_symmetry_Int_Tables_number   1
_chemical_formula_structural   Gd2Al7N9
_chemical_formula_sum   'Gd8 Al28 N36'
_cell_volume   896.83734375
_cell_formula_units_Z   4
loop_
 _symmetry_equiv_pos_site_id
 _symmetry_equiv_pos_as_xyz
  1  'x, y, z'
loop_
 _atom_site_type_symbol
 _atom_site_label
 _atom_site_symmetry_multiplicity
 _atom_site_fract_x
 _atom_site_fract_y
 _atom_site_fract_z
 _atom_site_occupancy
  Al  Al0  1  0.11419076  0.10611519  0.31180263  1
  Al  Al1  1  0.22770381  0.20404145  0.06453025  1
  Al  Al2  1  0.76979294  0.09618033  0.89585455  1
  Al  Al3  1  0.44260301  0.09324863  0.29269434  1
  Al  Al4  1  0.54298977  0.21649523  0.07142199  1
  Al  Al5  1  0.11564618  0.08709407  0.82983999  1
  Al  Al6  1  0.89828271  0.20026090  0.05980722  1
  Al  Al7  1  0.44378859  0.09493282  0.82749110  1
  Al  Al8  1  0.12480295  0.42056961  0.30354185  1
  Al  Al9  1  0.23548209  0.53436488  0.06380708  1
  Al  Al10  1  0.77505292  0.41984618  0.88320384  1
  Al  Al11  1  0.88476291  0.55114346  0.65302876  1
  Al  Al12  1  0.43891613  0.42811451  0.30211985  1
  Al  Al13  1  0.56495827  0.53171063  0.13485972  1
  Al  Al14  1  0.12362444  0.42119613  0.82297563  1
  Al  Al15  1  0.21587747  0.54308351  0.55574323  1
  Al  Al16  1  0.78292374  0.45104374  0.39052874  1
  Al  Al17  1  0.44404440  0.41287951  0.81424862  1
  Al  Al18  1  0.54337280  0.54483372  0.63717021  1
  Al  Al19  1  0.11933138  0.74559685  0.31924384  1
  Al  Al20  1  0.21459424  0.87837097  0.08181608  1
  Al  Al21  1  0.77532589  0.78161943  0.82539514  1
  Al  Al22  1  0.89761669  0.85219078  0.54427253  1
  Al  Al23  1  0.44365064  0.76671601  0.30158876  1
  Al  Al24  1  0.55874990  0.88613460  0.06931811  1
  Al  Al25  1  0.21677426  0.86344580  0.55393820  1
  Al  Al26  1  0.78067501  0.75966307  0.30190317  1
  Al  Al27  1  0.89558519  0.87142890  0.07194617  1
  Gd  Gd28  1  0.86287342  0.21605552  0.61503641  1
  Gd  Gd29  1  0.19599205  0.20463532  0.56801792  1
  Gd  Gd30  1  0.79761281  0.09473735  0.32582828  1
  Gd  Gd31  1  0.52531442  0.20996141  0.55103212  1
  Gd  Gd32  1  0.89489326  0.54182853  0.08826137  1
  Gd  Gd33  1  0.10847498  0.76710876  0.79794676  1
  Gd  Gd34  1  0.44861828  0.75412413  0.85481182  1
  Gd  Gd35  1  0.56696484  0.84291920  0.56355812  1
  N  N36  1  0.23372768  0.20130002  0.35390114  1
  N  N37  1  0.10642282  0.10223228  0.12934257  1
  N  N38  1  0.89424155  0.19755988  0.86960976  1
  N  N39  1  0.77761911  0.06664039  0.55609024  1
  N  N40  1  0.53539416  0.21352772  0.33569826  1
  N  N41  1  0.44195656  0.09694282  0.11369567  1
  N  N42  1  0.21746965  0.20557735  0.87982266  1
  N  N43  1  0.11414187  0.04923380  0.65468722  1
  N  N44  1  0.91768602  0.22792617  0.39464319  1
  N  N45  1  0.77969462  0.09896859  0.08804478  1
  N  N46  1  0.54835235  0.20680223  0.88188902  1
  N  N47  1  0.43292761  0.07817540  0.65268659  1
  N  N48  1  0.23125279  0.52702203  0.37179122  1
  N  N49  1  0.15312938  0.40880623  0.12401939  1
  N  N50  1  0.88524280  0.53641726  0.84497599  1
  N  N51  1  0.74610172  0.49744131  0.56994175  1
  N  N52  1  0.56379188  0.53655762  0.31790765  1
  N  N53  1  0.44535421  0.43168280  0.12009268  1
  N  N54  1  0.23550869  0.51882854  0.88502860  1
  N  N55  1  0.10658960  0.44852750  0.64181293  1
  N  N56  1  0.89633237  0.53754213  0.31542111  1
  N  N57  1  0.76171642  0.41632172  0.06178943  1
  N  N58  1  0.58149003  0.49401670  0.81359043  1
  N  N59  1  0.41950750  0.44747870  0.63256386  1
  N  N60  1  0.22316897  0.87689075  0.36433398  1
  N  N61  1  0.11575618  0.75513871  0.13147833  1
  N  N62  1  0.87638858  0.87938953  0.89354371  1
  N  N63  1  0.80623877  0.76400481  0.65010043  1
  N  N64  1  0.55548378  0.87267398  0.34676416  1
  N  N65  1  0.44724916  0.76487000  0.11359077  1
  N  N66  1  0.20011367  0.89551569  0.90908119  1
  N  N67  1  0.11022165  0.75565234  0.58265120  1
  N  N68  1  0.90596416  0.83414841  0.36620186  1
  N  N69  1  0.76509896  0.79728508  0.12699668  1
  N  N70  1  0.57030692  0.88705705  0.88917187  1
  N  N71  1  0.41043619  0.75705360  0.63628585  1
