# generated using pymatgen
data_Gd2Al7N9
_symmetry_space_group_name_H-M   'P 1'
_cell_length_a   9.89308395
_cell_length_b   9.95245237
_cell_length_c   10.46438550
_cell_angle_alpha   89.12338123
_cell_angle_beta   89.67735048
_cell_angle_gamma   59.91381421
_symmetry_Int_Tables_number   1
_chemical_formula_structural   Gd2Al7N9
_chemical_formula_sum   'Gd8 Al28 N36'
_cell_volume   891.40753497
_cell_formula_units_Z   4
loop_
 _symmetry_equiv_pos_site_id
 _symmetry_equiv_pos_as_xyz
  1  'x, y, z'
loop_
 _atom_site_type_symbol
 _atom_site_label
 _atom_site_symmetry_multiplicity
 _atom_site_fract_x
 _atom_site_fract_y
 _atom_site_fract_z
 _atom_site_occupancy
  Al  Al0  1  0.11088359  0.09960622  0.38743048  1
  Al  Al1  1  0.22224564  0.21100056  0.15594109  1
  Al  Al2  1  0.78621871  0.09008102  0.93011566  1
  Al  Al3  1  0.42884674  0.11680973  0.38004195  1
  Al  Al4  1  0.54445939  0.21363712  0.12942094  1
  Al  Al5  1  0.10832020  0.10659494  0.93027685  1
  Al  Al6  1  0.88606727  0.21328784  0.15845963  1
  Al  Al7  1  0.44574261  0.08824917  0.92620917  1
  Al  Al8  1  0.10155153  0.43541363  0.39687358  1
  Al  Al9  1  0.22663949  0.53882603  0.15826971  1
  Al  Al10  1  0.77758178  0.40638402  0.90395956  1
  Al  Al11  1  0.89469667  0.54030188  0.65120869  1
  Al  Al12  1  0.43457291  0.43310782  0.39171986  1
  Al  Al13  1  0.55308599  0.52901150  0.15306231  1
  Al  Al14  1  0.13449366  0.40856344  0.90240865  1
  Al  Al15  1  0.22524522  0.53355193  0.63531048  1
  Al  Al16  1  0.77177786  0.44571673  0.39846690  1
  Al  Al17  1  0.45238461  0.41336911  0.91016551  1
  Al  Al18  1  0.54540418  0.53480837  0.64549681  1
  Al  Al19  1  0.11018492  0.74717995  0.39553130  1
  Al  Al20  1  0.21673438  0.87770278  0.10444090  1
  Al  Al21  1  0.77342732  0.77835799  0.83072177  1
  Al  Al22  1  0.90148210  0.87188271  0.65031508  1
  Al  Al23  1  0.43603095  0.75691966  0.32443611  1
  Al  Al24  1  0.54780784  0.88572746  0.15763879  1
  Al  Al25  1  0.22769413  0.85479652  0.56961848  1
  Al  Al26  1  0.78150978  0.75503212  0.33145751  1
  Al  Al27  1  0.89577550  0.87355518  0.15680440  1
  Gd  Gd28  1  0.88964158  0.21396696  0.65197237  1
  Gd  Gd29  1  0.22847626  0.19819589  0.65047620  1
  Gd  Gd30  1  0.76499205  0.09922791  0.38167944  1
  Gd  Gd31  1  0.55375191  0.20582007  0.68015251  1
  Gd  Gd32  1  0.88731554  0.54189218  0.11332704  1
  Gd  Gd33  1  0.11952131  0.74356091  0.89055245  1
  Gd  Gd34  1  0.46157253  0.74937336  0.87482763  1
  Gd  Gd35  1  0.56457431  0.84922145  0.58855472  1
  N  N36  1  0.21230459  0.21610012  0.34044655  1
  N  N37  1  0.10481162  0.10829811  0.11646256  1
  N  N38  1  0.90001362  0.19336717  0.87194474  1
  N  N39  1  0.78749300  0.07662617  0.59519802  1
  N  N40  1  0.51577215  0.23374987  0.31352986  1
  N  N41  1  0.43567807  0.09219419  0.10785226  1
  N  N42  1  0.22765427  0.19589041  0.87118245  1
  N  N43  1  0.12337574  0.07049826  0.56941967  1
  N  N44  1  0.89359282  0.23120275  0.34305622  1
  N  N45  1  0.78717342  0.09247185  0.11780325  1
  N  N46  1  0.56235200  0.19497911  0.91101782  1
  N  N47  1  0.45287610  0.10384405  0.55630056  1
  N  N48  1  0.21800503  0.53750534  0.34129504  1
  N  N49  1  0.14774632  0.41686969  0.08499730  1
  N  N50  1  0.89439910  0.52719107  0.85572502  1
  N  N51  1  0.75408990  0.47580675  0.58104542  1
  N  N52  1  0.55520939  0.53367452  0.33614355  1
  N  N53  1  0.43287656  0.44677875  0.08967172  1
  N  N54  1  0.25645056  0.48470991  0.81782952  1
  N  N55  1  0.09760593  0.44738429  0.57937335  1
  N  N56  1  0.88688308  0.54040197  0.34009293  1
  N  N57  1  0.75418520  0.41592701  0.08435649  1
  N  N58  1  0.58189963  0.47700603  0.82434125  1
  N  N59  1  0.43683646  0.44188908  0.57168647  1
  N  N60  1  0.22411363  0.86236009  0.37530078  1
  N  N61  1  0.11027249  0.75732140  0.11154474  1
  N  N62  1  0.87230636  0.89741784  0.84250664  1
  N  N63  1  0.81022544  0.75009386  0.64883518  1
  N  N64  1  0.55208790  0.87154931  0.34946212  1
  N  N65  1  0.44465773  0.76261463  0.13618642  1
  N  N66  1  0.21617242  0.89460212  0.92086375  1
  N  N67  1  0.11059715  0.75257599  0.59018110  1
  N  N68  1  0.90411804  0.84570990  0.33968517  1
  N  N69  1  0.75938763  0.79653789  0.12933139  1
  N  N70  1  0.55736375  0.90327587  0.83561888  1
  N  N71  1  0.41580268  0.74928027  0.65360438  1
