# generated using pymatgen
data_Gd2Al7N9
_symmetry_space_group_name_H-M   'P 1'
_cell_length_a   9.81218838
_cell_length_b   9.94934655
_cell_length_c   10.63989497
_cell_angle_alpha   89.17701337
_cell_angle_beta   89.42791255
_cell_angle_gamma   59.78422763
_symmetry_Int_Tables_number   1
_chemical_formula_structural   Gd2Al7N9
_chemical_formula_sum   'Gd8 Al28 N36'
_cell_volume   897.49701380
_cell_formula_units_Z   4
loop_
 _symmetry_equiv_pos_site_id
 _symmetry_equiv_pos_as_xyz
  1  'x, y, z'
loop_
 _atom_site_type_symbol
 _atom_site_label
 _atom_site_symmetry_multiplicity
 _atom_site_fract_x
 _atom_site_fract_y
 _atom_site_fract_z
 _atom_site_occupancy
  Al  Al0  1  0.11392178  0.10862429  0.31108699  1
  Al  Al1  1  0.22998711  0.20453334  0.06251032  1
  Al  Al2  1  0.75972680  0.09977725  0.89758349  1
  Al  Al3  1  0.44043068  0.08824791  0.29573179  1
  Al  Al4  1  0.54925281  0.21343600  0.12443434  1
  Al  Al5  1  0.11480079  0.08677273  0.83088450  1
  Al  Al6  1  0.89612924  0.20135152  0.05971983  1
  Al  Al7  1  0.44445796  0.09249150  0.81880516  1
  Al  Al8  1  0.12475069  0.42188195  0.30181480  1
  Al  Al9  1  0.23964505  0.53153030  0.06203571  1
  Al  Al10  1  0.77502177  0.41914088  0.88364403  1
  Al  Al11  1  0.88612694  0.55197996  0.65518112  1
  Al  Al12  1  0.43818437  0.43552047  0.30792469  1
  Al  Al13  1  0.56515660  0.53401841  0.13705620  1
  Al  Al14  1  0.12691668  0.41965872  0.82271614  1
  Al  Al15  1  0.21579301  0.54418147  0.55505365  1
  Al  Al16  1  0.78529911  0.45160294  0.39266790  1
  Al  Al17  1  0.44770494  0.40882628  0.80599329  1
  Al  Al18  1  0.54313684  0.54608982  0.63421387  1
  Al  Al19  1  0.11940498  0.74467230  0.31752898  1
  Al  Al20  1  0.21405588  0.87932962  0.08185995  1
  Al  Al21  1  0.77453841  0.78446154  0.82612555  1
  Al  Al22  1  0.89783479  0.85082591  0.54468010  1
  Al  Al23  1  0.44166617  0.76879541  0.30204909  1
  Al  Al24  1  0.55841212  0.88769587  0.06748728  1
  Al  Al25  1  0.21368029  0.86566179  0.55564291  1
  Al  Al26  1  0.78075037  0.75923138  0.30107860  1
  Al  Al27  1  0.89476216  0.87236138  0.07259564  1
  Gd  Gd28  1  0.85449083  0.21805207  0.62304138  1
  Gd  Gd29  1  0.18694408  0.20733869  0.56610505  1
  Gd  Gd30  1  0.80849644  0.09026949  0.33312261  1
  Gd  Gd31  1  0.52470773  0.20518703  0.55282641  1
  Gd  Gd32  1  0.89549387  0.54248968  0.08608554  1
  Gd  Gd33  1  0.10848446  0.76716448  0.79976240  1
  Gd  Gd34  1  0.45029773  0.75074564  0.85557707  1
  Gd  Gd35  1  0.56784143  0.83750041  0.56317335  1
  N  N36  1  0.23275188  0.20382978  0.35365023  1
  N  N37  1  0.10542391  0.10358402  0.12928548  1
  N  N38  1  0.89272451  0.19678518  0.87273476  1
  N  N39  1  0.77879355  0.06612099  0.54971721  1
  N  N40  1  0.53895502  0.21265802  0.32128699  1
  N  N41  1  0.44266085  0.09616989  0.11636295  1
  N  N42  1  0.21868079  0.20447578  0.87849060  1
  N  N43  1  0.10776239  0.05113221  0.65620739  1
  N  N44  1  0.92023300  0.22982368  0.39908263  1
  N  N45  1  0.77632811  0.10096264  0.09114679  1
  N  N46  1  0.55593796  0.19833911  0.84073021  1
  N  N47  1  0.42624366  0.07349447  0.64417778  1
  N  N48  1  0.22991909  0.52787138  0.37181647  1
  N  N49  1  0.15463841  0.40888462  0.12251900  1
  N  N50  1  0.88626723  0.53580529  0.84548030  1
  N  N51  1  0.74793578  0.49924367  0.57064663  1
  N  N52  1  0.56354911  0.53976684  0.32098966  1
  N  N53  1  0.44565541  0.43495183  0.12507862  1
  N  N54  1  0.24037842  0.51640352  0.88319217  1
  N  N55  1  0.10886705  0.44848318  0.64189754  1
  N  N56  1  0.89640182  0.53787677  0.31404644  1
  N  N57  1  0.76108180  0.41807095  0.06239780  1
  N  N58  1  0.58388206  0.49144633  0.80950676  1
  N  N59  1  0.42255553  0.44763838  0.62290000  1
  N  N60  1  0.22033824  0.87943430  0.36472905  1
  N  N61  1  0.11600988  0.75545258  0.13078314  1
  N  N62  1  0.87521510  0.88133910  0.89556903  1
  N  N63  1  0.80618795  0.76490659  0.65136402  1
  N  N64  1  0.55488433  0.87205130  0.34769462  1
  N  N65  1  0.44702016  0.76586497  0.11456748  1
  N  N66  1  0.20115052  0.89520278  0.90930281  1
  N  N67  1  0.10969407  0.75596268  0.58427597  1
  N  N68  1  0.90721735  0.83090668  0.36638127  1
  N  N69  1  0.76446792  0.79758985  0.12665638  1
  N  N70  1  0.56810467  0.88744467  0.88778606  1
  N  N71  1  0.40771981  0.75747521  0.63776294  1
