# generated using pymatgen
data_Gd2Al7N9
_symmetry_space_group_name_H-M   'P 1'
_cell_length_a   9.87643546
_cell_length_b   9.94559334
_cell_length_c   10.37369345
_cell_angle_alpha   89.76834993
_cell_angle_beta   90.05417970
_cell_angle_gamma   60.18957687
_symmetry_Int_Tables_number   1
_chemical_formula_structural   Gd2Al7N9
_chemical_formula_sum   'Gd8 Al28 N36'
_cell_volume   884.12845539
_cell_formula_units_Z   4
loop_
 _symmetry_equiv_pos_site_id
 _symmetry_equiv_pos_as_xyz
  1  'x, y, z'
loop_
 _atom_site_type_symbol
 _atom_site_label
 _atom_site_symmetry_multiplicity
 _atom_site_fract_x
 _atom_site_fract_y
 _atom_site_fract_z
 _atom_site_occupancy
  Al  Al0  1  0.11359239  0.09584912  0.38200957  1
  Al  Al1  1  0.22358218  0.20932454  0.15543675  1
  Al  Al2  1  0.78538482  0.08938872  0.92595372  1
  Al  Al3  1  0.43206492  0.11410052  0.37997754  1
  Al  Al4  1  0.54485214  0.21302109  0.12843741  1
  Al  Al5  1  0.10880703  0.10314840  0.93044167  1
  Al  Al6  1  0.88705899  0.21253794  0.15662347  1
  Al  Al7  1  0.44274428  0.08918130  0.92460348  1
  Al  Al8  1  0.10502666  0.43377668  0.39818366  1
  Al  Al9  1  0.22695089  0.53735178  0.15696076  1
  Al  Al10  1  0.77892136  0.40869676  0.90246242  1
  Al  Al11  1  0.88915113  0.54931891  0.64913221  1
  Al  Al12  1  0.43583283  0.43422731  0.39032466  1
  Al  Al13  1  0.55628258  0.52832313  0.15324919  1
  Al  Al14  1  0.13002219  0.41147909  0.90179467  1
  Al  Al15  1  0.22605127  0.53502165  0.63388163  1
  Al  Al16  1  0.77284822  0.44332109  0.40073889  1
  Al  Al17  1  0.45170441  0.41335332  0.91087290  1
  Al  Al18  1  0.54839426  0.53409208  0.64584993  1
  Al  Al19  1  0.11063982  0.74998966  0.38791263  1
  Al  Al20  1  0.21527333  0.87574181  0.11772376  1
  Al  Al21  1  0.76450072  0.78797108  0.89415284  1
  Al  Al22  1  0.89257734  0.86956546  0.64573965  1
  Al  Al23  1  0.44184528  0.75877598  0.32443504  1
  Al  Al24  1  0.55884313  0.88199689  0.15789727  1
  Al  Al25  1  0.22594464  0.85328485  0.58197628  1
  Al  Al26  1  0.79442882  0.74739910  0.40072458  1
  Al  Al27  1  0.89219657  0.86881577  0.15228648  1
  Gd  Gd28  1  0.89442276  0.20898200  0.64886305  1
  Gd  Gd29  1  0.22284125  0.20473822  0.64816452  1
  Gd  Gd30  1  0.76708386  0.09588627  0.37758365  1
  Gd  Gd31  1  0.55301037  0.21414264  0.67829400  1
  Gd  Gd32  1  0.88745811  0.54494638  0.13019317  1
  Gd  Gd33  1  0.11559776  0.74379189  0.88822499  1
  Gd  Gd34  1  0.46019832  0.74564986  0.88425785  1
  Gd  Gd35  1  0.55243655  0.86481345  0.61037807  1
  N  N36  1  0.21411033  0.21538059  0.34118081  1
  N  N37  1  0.10523934  0.10723498  0.11672793  1
  N  N38  1  0.89936080  0.19368769  0.87075635  1
  N  N39  1  0.78642109  0.07609729  0.59314018  1
  N  N40  1  0.51732978  0.23357829  0.31403004  1
  N  N41  1  0.43761588  0.08964171  0.10811209  1
  N  N42  1  0.22476940  0.19679216  0.87032407  1
  N  N43  1  0.12910814  0.06401732  0.56502089  1
  N  N44  1  0.89439879  0.23017507  0.34295535  1
  N  N45  1  0.78818438  0.08976744  0.11577443  1
  N  N46  1  0.56115434  0.19459421  0.90985314  1
  N  N47  1  0.44788853  0.11208147  0.55860453  1
  N  N48  1  0.21906545  0.53763693  0.34082980  1
  N  N49  1  0.14474176  0.41569163  0.08565065  1
  N  N50  1  0.88986127  0.53969234  0.85011119  1
  N  N51  1  0.75726013  0.46929321  0.58437844  1
  N  N52  1  0.55673942  0.53526811  0.33710280  1
  N  N53  1  0.43443542  0.44534389  0.09118948  1
  N  N54  1  0.25670034  0.48448727  0.81828064  1
  N  N55  1  0.09685026  0.45059855  0.58132780  1
  N  N56  1  0.88767435  0.54042864  0.34714492  1
  N  N57  1  0.75888103  0.41633550  0.08469426  1
  N  N58  1  0.58135380  0.47654747  0.82589544  1
  N  N59  1  0.43589198  0.44540772  0.57068592  1
  N  N60  1  0.22071278  0.86591057  0.35127137  1
  N  N61  1  0.10834834  0.75358379  0.10955343  1
  N  N62  1  0.86653654  0.89324749  0.83420304  1
  N  N63  1  0.80814539  0.75063282  0.58468013  1
  N  N64  1  0.56099905  0.87116926  0.34905219  1
  N  N65  1  0.45198350  0.75940756  0.13347080  1
  N  N66  1  0.21398670  0.89237586  0.92072995  1
  N  N67  1  0.10807503  0.75441140  0.58941898  1
  N  N68  1  0.90209081  0.84042833  0.33229355  1
  N  N69  1  0.75836228  0.79999915  0.07908454  1
  N  N70  1  0.55711366  0.89959353  0.83599414  1
  N  N71  1  0.41714455  0.74585883  0.65504609  1
