# generated using pymatgen
data_Gd2Al7N9
_symmetry_space_group_name_H-M   'P 1'
_cell_length_a   9.79979093
_cell_length_b   9.87310879
_cell_length_c   10.75544974
_cell_angle_alpha   89.41367618
_cell_angle_beta   89.27200352
_cell_angle_gamma   60.07066271
_symmetry_Int_Tables_number   1
_chemical_formula_structural   Gd2Al7N9
_chemical_formula_sum   'Gd8 Al28 N36'
_cell_volume   901.77729181
_cell_formula_units_Z   4
loop_
 _symmetry_equiv_pos_site_id
 _symmetry_equiv_pos_as_xyz
  1  'x, y, z'
loop_
 _atom_site_type_symbol
 _atom_site_label
 _atom_site_symmetry_multiplicity
 _atom_site_fract_x
 _atom_site_fract_y
 _atom_site_fract_z
 _atom_site_occupancy
  Al  Al0  1  0.10816544  0.10339327  0.30768409  1
  Al  Al1  1  0.21633356  0.20836674  0.07727382  1
  Al  Al2  1  0.76947751  0.09416185  0.90493147  1
  Al  Al3  1  0.43735732  0.09595251  0.30222232  1
  Al  Al4  1  0.54722385  0.22096422  0.12690303  1
  Al  Al5  1  0.12007132  0.08599504  0.82908252  1
  Al  Al6  1  0.89437324  0.20235282  0.06154748  1
  Al  Al7  1  0.44503570  0.09691975  0.90669424  1
  Al  Al8  1  0.11926069  0.42651876  0.29660755  1
  Al  Al9  1  0.22843533  0.54066982  0.06590140  1
  Al  Al10  1  0.77342031  0.41609467  0.87929675  1
  Al  Al11  1  0.88876854  0.55183547  0.65486418  1
  Al  Al12  1  0.44460076  0.43174831  0.37252676  1
  Al  Al13  1  0.56022255  0.52914422  0.13652736  1
  Al  Al14  1  0.12981150  0.41634879  0.82180880  1
  Al  Al15  1  0.21586257  0.54468137  0.54677381  1
  Al  Al16  1  0.78404912  0.44969813  0.38895805  1
  Al  Al17  1  0.45826861  0.41273332  0.89498967  1
  Al  Al18  1  0.54519614  0.53931395  0.62487649  1
  Al  Al19  1  0.11445276  0.74878404  0.31727785  1
  Al  Al20  1  0.21465428  0.87681384  0.07691823  1
  Al  Al21  1  0.77259584  0.78344735  0.82752170  1
  Al  Al22  1  0.89970554  0.85218503  0.54856118  1
  Al  Al23  1  0.43749073  0.76660606  0.29900257  1
  Al  Al24  1  0.55838268  0.87474816  0.08144072  1
  Al  Al25  1  0.22024907  0.86493161  0.55589514  1
  Al  Al26  1  0.78119578  0.75754891  0.29877364  1
  Al  Al27  1  0.89360163  0.87356693  0.07529010  1
  Gd  Gd28  1  0.87011919  0.21747679  0.61604775  1
  Gd  Gd29  1  0.19282400  0.21290658  0.54924455  1
  Gd  Gd30  1  0.78563376  0.09724630  0.34675184  1
  Gd  Gd31  1  0.54230274  0.20599259  0.64431867  1
  Gd  Gd32  1  0.89196442  0.54391953  0.08081069  1
  Gd  Gd33  1  0.10619264  0.76459474  0.79898433  1
  Gd  Gd34  1  0.45173365  0.75161378  0.84252601  1
  Gd  Gd35  1  0.57578712  0.83669113  0.54834043  1
  N  N36  1  0.22290392  0.20593029  0.33453793  1
  N  N37  1  0.10174895  0.10006247  0.12788697  1
  N  N38  1  0.89645956  0.19294191  0.87204878  1
  N  N39  1  0.77957385  0.06828378  0.56109854  1
  N  N40  1  0.52565404  0.22761606  0.30276516  1
  N  N41  1  0.44041385  0.09777204  0.09864372  1
  N  N42  1  0.21786327  0.20542432  0.88883150  1
  N  N43  1  0.12157317  0.05353975  0.65421117  1
  N  N44  1  0.91564827  0.22672870  0.39451676  1
  N  N45  1  0.77732240  0.10040333  0.09295023  1
  N  N46  1  0.55623219  0.19748787  0.86387832  1
  N  N47  1  0.43335094  0.08024161  0.58780365  1
  N  N48  1  0.21804939  0.53405458  0.36561028  1
  N  N49  1  0.14813584  0.41503103  0.12188190  1
  N  N50  1  0.88481181  0.53291375  0.84168161  1
  N  N51  1  0.75301406  0.49694146  0.56731754  1
  N  N52  1  0.56191723  0.53532560  0.31542642  1
  N  N53  1  0.45185133  0.43374019  0.07314017  1
  N  N54  1  0.23319235  0.51991218  0.88594174  1
  N  N55  1  0.11465731  0.44926883  0.64371859  1
  N  N56  1  0.89218163  0.53709448  0.30935190  1
  N  N57  1  0.75686769  0.41945115  0.05706548  1
  N  N58  1  0.57934619  0.48095722  0.80176971  1
  N  N59  1  0.44243001  0.44443330  0.54926284  1
  N  N60  1  0.21967979  0.87743931  0.36532433  1
  N  N61  1  0.11279888  0.75835499  0.13167672  1
  N  N62  1  0.87606887  0.87729166  0.89909575  1
  N  N63  1  0.80578400  0.76727497  0.65464210  1
  N  N64  1  0.55241230  0.87252018  0.33270569  1
  N  N65  1  0.44205733  0.76255402  0.11605487  1
  N  N66  1  0.20594738  0.89084546  0.90530402  1
  N  N67  1  0.11320380  0.75584393  0.58591602  1
  N  N68  1  0.90152398  0.83353642  0.37098473  1
  N  N69  1  0.76600620  0.79629080  0.12820907  1
  N  N70  1  0.57142801  0.88033186  0.89894699  1
  N  N71  1  0.41719478  0.75412941  0.63194542  1
