# generated using pymatgen
data_Gd2Al7N9
_symmetry_space_group_name_H-M   'P 1'
_cell_length_a   9.84059786
_cell_length_b   9.93276993
_cell_length_c   10.56612910
_cell_angle_alpha   89.30535839
_cell_angle_beta   89.53434528
_cell_angle_gamma   59.94270243
_symmetry_Int_Tables_number   1
_chemical_formula_structural   Gd2Al7N9
_chemical_formula_sum   'Gd8 Al28 N36'
_cell_volume   893.82855558
_cell_formula_units_Z   4
loop_
 _symmetry_equiv_pos_site_id
 _symmetry_equiv_pos_as_xyz
  1  'x, y, z'
loop_
 _atom_site_type_symbol
 _atom_site_label
 _atom_site_symmetry_multiplicity
 _atom_site_fract_x
 _atom_site_fract_y
 _atom_site_fract_z
 _atom_site_occupancy
  Al  Al0  1  0.10570721  0.10400563  0.33693869  1
  Al  Al1  1  0.22557741  0.21285838  0.15809746  1
  Al  Al2  1  0.76606313  0.09776736  0.92853385  1
  Al  Al3  1  0.44053357  0.10294088  0.38351836  1
  Al  Al4  1  0.53976361  0.21773530  0.13957333  1
  Al  Al5  1  0.12484134  0.08437876  0.84884494  1
  Al  Al6  1  0.89681385  0.20292073  0.08533248  1
  Al  Al7  1  0.43880613  0.09166474  0.91894858  1
  Al  Al8  1  0.10433411  0.44213140  0.38531726  1
  Al  Al9  1  0.23257545  0.53825981  0.15579070  1
  Al  Al10  1  0.78020155  0.41190316  0.89915074  1
  Al  Al11  1  0.89480930  0.54514054  0.66141979  1
  Al  Al12  1  0.44048322  0.43129436  0.39547319  1
  Al  Al13  1  0.55989168  0.52660856  0.15701274  1
  Al  Al14  1  0.13206253  0.41256201  0.87428161  1
  Al  Al15  1  0.22827811  0.53217349  0.63333714  1
  Al  Al16  1  0.78034869  0.45084441  0.41245205  1
  Al  Al17  1  0.44848706  0.41715158  0.90757222  1
  Al  Al18  1  0.54260153  0.53588922  0.65076375  1
  Al  Al19  1  0.11430499  0.75724985  0.34436864  1
  Al  Al20  1  0.21410821  0.88283878  0.10378403  1
  Al  Al21  1  0.77581690  0.78844805  0.83552664  1
  Al  Al22  1  0.90335808  0.84987373  0.56713846  1
  Al  Al23  1  0.43819380  0.75902956  0.32818785  1
  Al  Al24  1  0.54732510  0.88725655  0.15949625  1
  Al  Al25  1  0.22142373  0.85479344  0.57845707  1
  Al  Al26  1  0.78565681  0.75803152  0.32503798  1
  Al  Al27  1  0.89194772  0.87640057  0.09845786  1
  Gd  Gd28  1  0.86262259  0.21680227  0.64374273  1
  Gd  Gd29  1  0.19523262  0.19311953  0.59632891  1
  Gd  Gd30  1  0.78220376  0.10326100  0.36445200  1
  Gd  Gd31  1  0.53782965  0.19612684  0.66921302  1
  Gd  Gd32  1  0.89212823  0.54585947  0.10535070  1
  Gd  Gd33  1  0.10591498  0.78663530  0.82029748  1
  Gd  Gd34  1  0.46559282  0.74335079  0.88302262  1
  Gd  Gd35  1  0.57294993  0.83001264  0.59217447  1
  N  N36  1  0.21964188  0.21483301  0.34638000  1
  N  N37  1  0.10227537  0.10324381  0.15584223  1
  N  N38  1  0.90158718  0.19002403  0.89627541  1
  N  N39  1  0.77580410  0.06722849  0.58703548  1
  N  N40  1  0.52281058  0.22727706  0.32204564  1
  N  N41  1  0.43626601  0.09372631  0.10300866  1
  N  N42  1  0.23128465  0.19956481  0.84422929  1
  N  N43  1  0.10917199  0.03415310  0.67867688  1
  N  N44  1  0.91520216  0.22861587  0.42124219  1
  N  N45  1  0.77673294  0.10319669  0.11748105  1
  N  N46  1  0.55297127  0.19918009  0.89332254  1
  N  N47  1  0.44000686  0.08444773  0.55720125  1
  N  N48  1  0.22787035  0.53632432  0.33925956  1
  N  N49  1  0.15055981  0.41508688  0.09451271  1
  N  N50  1  0.89630425  0.52425109  0.85506150  1
  N  N51  1  0.74337284  0.50160859  0.58822714  1
  N  N52  1  0.56215701  0.53098248  0.33911968  1
  N  N53  1  0.44069267  0.44192708  0.08987562  1
  N  N54  1  0.24740108  0.51065093  0.82246577  1
  N  N55  1  0.09847988  0.44909786  0.58831976  1
  N  N56  1  0.89074787  0.54020708  0.33527621  1
  N  N57  1  0.75786742  0.42089066  0.07999790  1
  N  N58  1  0.58728431  0.47282790  0.82421685  1
  N  N59  1  0.44192721  0.43636849  0.57346216  1
  N  N60  1  0.22271258  0.87869377  0.39133833  1
  N  N61  1  0.10831796  0.77058949  0.15449844  1
  N  N62  1  0.87348325  0.88043477  0.91875735  1
  N  N63  1  0.81731391  0.75656935  0.66390941  1
  N  N64  1  0.55277647  0.87069828  0.35009405  1
  N  N65  1  0.44377740  0.76268547  0.14204630  1
  N  N66  1  0.21718081  0.89577197  0.93159851  1
  N  N67  1  0.11699034  0.74610754  0.60186316  1
  N  N68  1  0.90193103  0.84048291  0.38879907  1
  N  N69  1  0.76285743  0.80004044  0.14955679  1
  N  N70  1  0.56124816  0.89592698  0.84562412  1
  N  N71  1  0.41122632  0.74797232  0.66350201  1
