# generated using pymatgen
data_Gd2Al7N9
_symmetry_space_group_name_H-M   'P 1'
_cell_length_a   9.79491324
_cell_length_b   9.87265694
_cell_length_c   10.75417560
_cell_angle_alpha   89.38157946
_cell_angle_beta   89.26641431
_cell_angle_gamma   60.04481493
_symmetry_Int_Tables_number   1
_chemical_formula_structural   Gd2Al7N9
_chemical_formula_sum   'Gd8 Al28 N36'
_cell_volume   900.94263389
_cell_formula_units_Z   4
loop_
 _symmetry_equiv_pos_site_id
 _symmetry_equiv_pos_as_xyz
  1  'x, y, z'
loop_
 _atom_site_type_symbol
 _atom_site_label
 _atom_site_symmetry_multiplicity
 _atom_site_fract_x
 _atom_site_fract_y
 _atom_site_fract_z
 _atom_site_occupancy
  Al  Al0  1  0.10937947  0.10306754  0.30672258  1
  Al  Al1  1  0.22023136  0.20693803  0.08195546  1
  Al  Al2  1  0.76740252  0.09474679  0.90421582  1
  Al  Al3  1  0.44048067  0.09643165  0.35281666  1
  Al  Al4  1  0.54223839  0.21730520  0.13226569  1
  Al  Al5  1  0.12057683  0.08647490  0.82959826  1
  Al  Al6  1  0.89390505  0.20170798  0.06095830  1
  Al  Al7  1  0.44538497  0.09812412  0.90886979  1
  Al  Al8  1  0.12005334  0.42681907  0.29553890  1
  Al  Al9  1  0.22914178  0.54035920  0.06542005  1
  Al  Al10  1  0.77411002  0.41570223  0.87970977  1
  Al  Al11  1  0.88886034  0.55263824  0.65594163  1
  Al  Al12  1  0.44556925  0.43171988  0.37329163  1
  Al  Al13  1  0.56044519  0.52718610  0.13632958  1
  Al  Al14  1  0.13010380  0.41618376  0.82248470  1
  Al  Al15  1  0.21564333  0.54526824  0.54691591  1
  Al  Al16  1  0.78447169  0.44991242  0.38915697  1
  Al  Al17  1  0.45942819  0.40993984  0.89430291  1
  Al  Al18  1  0.54465198  0.53919283  0.62730878  1
  Al  Al19  1  0.11474369  0.74889198  0.31715024  1
  Al  Al20  1  0.21410137  0.87721675  0.07715709  1
  Al  Al21  1  0.77255901  0.78362755  0.82792045  1
  Al  Al22  1  0.89923199  0.85315901  0.54835813  1
  Al  Al23  1  0.43835774  0.76614672  0.29801660  1
  Al  Al24  1  0.55645621  0.87908185  0.08411804  1
  Al  Al25  1  0.21998969  0.86542784  0.55593048  1
  Al  Al26  1  0.78143012  0.75756252  0.29856875  1
  Al  Al27  1  0.89319341  0.87403480  0.07513239  1
  Gd  Gd28  1  0.86783336  0.21818175  0.61927803  1
  Gd  Gd29  1  0.18177746  0.21827723  0.54600737  1
  Gd  Gd30  1  0.78843057  0.09785910  0.34532072  1
  Gd  Gd31  1  0.53805079  0.20284155  0.63770216  1
  Gd  Gd32  1  0.89162143  0.54409379  0.08084226  1
  Gd  Gd33  1  0.10672741  0.76497197  0.79942180  1
  Gd  Gd34  1  0.45255318  0.74934358  0.84720033  1
  Gd  Gd35  1  0.57762367  0.82946564  0.54859312  1
  N  N36  1  0.22118910  0.20764112  0.33175946  1
  N  N37  1  0.10126081  0.09993540  0.12770786  1
  N  N38  1  0.89628473  0.19258530  0.87167691  1
  N  N39  1  0.77846502  0.06984715  0.56168294  1
  N  N40  1  0.52693342  0.22593251  0.30779971  1
  N  N41  1  0.44155059  0.09979706  0.08797125  1
  N  N42  1  0.21795480  0.20561726  0.88547502  1
  N  N43  1  0.12232651  0.05414385  0.65410787  1
  N  N44  1  0.91825787  0.22684586  0.39754899  1
  N  N45  1  0.77563761  0.10085062  0.09324947  1
  N  N46  1  0.55631752  0.19656087  0.85612481  1
  N  N47  1  0.43461943  0.08708824  0.53888170  1
  N  N48  1  0.21880245  0.53419472  0.36610904  1
  N  N49  1  0.14757418  0.41622052  0.12110966  1
  N  N50  1  0.88505268  0.53322281  0.84147414  1
  N  N51  1  0.75209137  0.49893914  0.56765492  1
  N  N52  1  0.56256660  0.53430360  0.31541531  1
  N  N53  1  0.45282935  0.43039775  0.07356184  1
  N  N54  1  0.23384499  0.52004824  0.88552776  1
  N  N55  1  0.11533184  0.44912399  0.64353355  1
  N  N56  1  0.89301823  0.53698227  0.30977036  1
  N  N57  1  0.75721370  0.41904343  0.05703570  1
  N  N58  1  0.58066670  0.47984178  0.80230076  1
  N  N59  1  0.44339995  0.44363740  0.55094993  1
  N  N60  1  0.22034811  0.87726606  0.36545043  1
  N  N61  1  0.11292833  0.75828801  0.13179258  1
  N  N62  1  0.87615439  0.87750121  0.89888891  1
  N  N63  1  0.80440347  0.76882882  0.65429936  1
  N  N64  1  0.55564648  0.86717793  0.33388644  1
  N  N65  1  0.44223396  0.76215853  0.11532733  1
  N  N66  1  0.20536210  0.89146722  0.90561945  1
  N  N67  1  0.11285529  0.75644416  0.58604315  1
  N  N68  1  0.90136561  0.83448296  0.37113563  1
  N  N69  1  0.76600580  0.79630608  0.12782145  1
  N  N70  1  0.57077138  0.88058264  0.89556987  1
  N  N71  1  0.41610072  0.75472911  0.63453690  1
