# generated using pymatgen
data_Gd2Al7N9
_symmetry_space_group_name_H-M   'P 1'
_cell_length_a   9.84506823
_cell_length_b   9.93727083
_cell_length_c   10.60775072
_cell_angle_alpha   89.25176649
_cell_angle_beta   89.44682445
_cell_angle_gamma   59.93531622
_symmetry_Int_Tables_number   1
_chemical_formula_structural   Gd2Al7N9
_chemical_formula_sum   'Gd8 Al28 N36'
_cell_volume   898.08307124
_cell_formula_units_Z   4
loop_
 _symmetry_equiv_pos_site_id
 _symmetry_equiv_pos_as_xyz
  1  'x, y, z'
loop_
 _atom_site_type_symbol
 _atom_site_label
 _atom_site_symmetry_multiplicity
 _atom_site_fract_x
 _atom_site_fract_y
 _atom_site_fract_z
 _atom_site_occupancy
  Al  Al0  1  0.10549348  0.10140516  0.33641473  1
  Al  Al1  1  0.22831225  0.20545100  0.15694668  1
  Al  Al2  1  0.76592388  0.09759816  0.92867144  1
  Al  Al3  1  0.44199302  0.10145739  0.38395989  1
  Al  Al4  1  0.53979242  0.21770584  0.14049715  1
  Al  Al5  1  0.12608062  0.08500671  0.84817817  1
  Al  Al6  1  0.89684595  0.20274353  0.08492861  1
  Al  Al7  1  0.43824717  0.09254681  0.91928655  1
  Al  Al8  1  0.11101319  0.43531617  0.33221934  1
  Al  Al9  1  0.23631475  0.54213470  0.15769300  1
  Al  Al10  1  0.77945027  0.41190244  0.89954417  1
  Al  Al11  1  0.88738735  0.54827469  0.66415407  1
  Al  Al12  1  0.44091086  0.43150894  0.39661842  1
  Al  Al13  1  0.56119931  0.52612770  0.15754038  1
  Al  Al14  1  0.12913949  0.41348546  0.82715006  1
  Al  Al15  1  0.23043881  0.53417490  0.63503867  1
  Al  Al16  1  0.78150888  0.45044712  0.41250650  1
  Al  Al17  1  0.44920724  0.41709182  0.90814064  1
  Al  Al18  1  0.54255131  0.53556646  0.65148870  1
  Al  Al19  1  0.11395500  0.75814919  0.34588629  1
  Al  Al20  1  0.21438072  0.88242416  0.10293721  1
  Al  Al21  1  0.77478768  0.78892785  0.83509028  1
  Al  Al22  1  0.90246832  0.85021520  0.56686208  1
  Al  Al23  1  0.43839722  0.75864214  0.32819579  1
  Al  Al24  1  0.54810724  0.88654190  0.15980205  1
  Al  Al25  1  0.22109220  0.85545326  0.57884391  1
  Al  Al26  1  0.78678486  0.75651291  0.32476525  1
  Al  Al27  1  0.89156796  0.87665246  0.09856640  1
  Gd  Gd28  1  0.86214938  0.21658037  0.64446481  1
  Gd  Gd29  1  0.18874542  0.19799943  0.58463992  1
  Gd  Gd30  1  0.78168586  0.10371517  0.36513405  1
  Gd  Gd31  1  0.53694378  0.19552239  0.66976862  1
  Gd  Gd32  1  0.89381136  0.54733418  0.09596789  1
  Gd  Gd33  1  0.10605279  0.78665619  0.82120912  1
  Gd  Gd34  1  0.46563820  0.74346774  0.88233965  1
  Gd  Gd35  1  0.57030755  0.83235427  0.59201791  1
  N  N36  1  0.22181811  0.20843555  0.34732405  1
  N  N37  1  0.10223345  0.10179516  0.15586369  1
  N  N38  1  0.90163190  0.18978830  0.89630513  1
  N  N39  1  0.77533370  0.06748757  0.58701495  1
  N  N40  1  0.52222449  0.22748150  0.32235543  1
  N  N41  1  0.43769380  0.09307633  0.10276707  1
  N  N42  1  0.23070926  0.19999745  0.85156798  1
  N  N43  1  0.11087127  0.03671598  0.67748977  1
  N  N44  1  0.91618638  0.22772008  0.42172221  1
  N  N45  1  0.77662865  0.10310774  0.11748454  1
  N  N46  1  0.55329071  0.19918287  0.89321625  1
  N  N47  1  0.43751755  0.08623330  0.55730295  1
  N  N48  1  0.23009907  0.53932068  0.34222625  1
  N  N49  1  0.14671474  0.41703968  0.13720403  1
  N  N50  1  0.88991136  0.52890102  0.85707597  1
  N  N51  1  0.74305479  0.50054942  0.58793404  1
  N  N52  1  0.56287247  0.53050412  0.33920477  1
  N  N53  1  0.44173306  0.44117734  0.08996237  1
  N  N54  1  0.25051695  0.51413074  0.82640115  1
  N  N55  1  0.10269758  0.44218396  0.63613175  1
  N  N56  1  0.89053093  0.53998074  0.33649898  1
  N  N57  1  0.75905355  0.42080977  0.08048559  1
  N  N58  1  0.58771411  0.47273121  0.82428775  1
  N  N59  1  0.44242643  0.43576876  0.57410191  1
  N  N60  1  0.22275636  0.87825951  0.39178009  1
  N  N61  1  0.10825630  0.77120558  0.15476666  1
  N  N62  1  0.87313594  0.87989706  0.91918605  1
  N  N63  1  0.81478473  0.75822515  0.66300994  1
  N  N64  1  0.55309854  0.87035843  0.35001891  1
  N  N65  1  0.44370083  0.76263152  0.14240269  1
  N  N66  1  0.21707836  0.89600040  0.93133297  1
  N  N67  1  0.11595336  0.74672273  0.60201467  1
  N  N68  1  0.90128823  0.84125717  0.38875228  1
  N  N69  1  0.76362163  0.79879551  0.14990695  1
  N  N70  1  0.56038000  0.89694043  0.84538702  1
  N  N71  1  0.41082044  0.74750130  0.66356343  1
