# generated using pymatgen
data_Gd2Al7N9
_symmetry_space_group_name_H-M   'P 1'
_cell_length_a   9.86699427
_cell_length_b   9.88670413
_cell_length_c   10.37914849
_cell_angle_alpha   89.88590793
_cell_angle_beta   90.05139071
_cell_angle_gamma   60.27527546
_symmetry_Int_Tables_number   1
_chemical_formula_structural   Gd2Al7N9
_chemical_formula_sum   'Gd8 Al28 N36'
_cell_volume   879.27532923
_cell_formula_units_Z   4
loop_
 _symmetry_equiv_pos_site_id
 _symmetry_equiv_pos_as_xyz
  1  'x, y, z'
loop_
 _atom_site_type_symbol
 _atom_site_label
 _atom_site_symmetry_multiplicity
 _atom_site_fract_x
 _atom_site_fract_y
 _atom_site_fract_z
 _atom_site_occupancy
  Al  Al0  1  0.11462740  0.09426844  0.38716364  1
  Al  Al1  1  0.22495673  0.20438280  0.15127221  1
  Al  Al2  1  0.78056321  0.08944856  0.92611350  1
  Al  Al3  1  0.43226093  0.11211353  0.37963250  1
  Al  Al4  1  0.54416729  0.21372273  0.13138549  1
  Al  Al5  1  0.10994328  0.09415465  0.91752938  1
  Al  Al6  1  0.88974700  0.20827673  0.14956510  1
  Al  Al7  1  0.44340175  0.08927117  0.92599088  1
  Al  Al8  1  0.10759096  0.43317304  0.39722260  1
  Al  Al9  1  0.22772597  0.53980525  0.15740805  1
  Al  Al10  1  0.77504539  0.41378311  0.90281834  1
  Al  Al11  1  0.89164405  0.54621747  0.64711468  1
  Al  Al12  1  0.43595652  0.43419998  0.39070797  1
  Al  Al13  1  0.55276088  0.53559764  0.15578551  1
  Al  Al14  1  0.12972558  0.41106262  0.90339914  1
  Al  Al15  1  0.22619904  0.53592704  0.63494033  1
  Al  Al16  1  0.77758958  0.43885960  0.39932994  1
  Al  Al17  1  0.44981983  0.41633324  0.91112729  1
  Al  Al18  1  0.55067356  0.53630672  0.63814647  1
  Al  Al19  1  0.11434914  0.75419914  0.40121633  1
  Al  Al20  1  0.21895065  0.87188214  0.15846036  1
  Al  Al21  1  0.76522374  0.78152576  0.89849212  1
  Al  Al22  1  0.89287716  0.86823669  0.64703974  1
  Al  Al23  1  0.44242860  0.75692100  0.37355508  1
  Al  Al24  1  0.55587459  0.87737490  0.16055813  1
  Al  Al25  1  0.21733319  0.86742471  0.64018008  1
  Al  Al26  1  0.79594345  0.74772799  0.40065187  1
  Al  Al27  1  0.89464144  0.86778025  0.15326496  1
  Gd  Gd28  1  0.89360796  0.20569378  0.65298195  1
  Gd  Gd29  1  0.22114325  0.20514157  0.64960130  1
  Gd  Gd30  1  0.76908066  0.09636434  0.37659839  1
  Gd  Gd31  1  0.55113043  0.21697063  0.67598524  1
  Gd  Gd32  1  0.88901825  0.54162189  0.13336370  1
  Gd  Gd33  1  0.11042919  0.74619627  0.88669209  1
  Gd  Gd34  1  0.44894167  0.75093501  0.89261500  1
  Gd  Gd35  1  0.55895067  0.86978376  0.62004046  1
  N  N36  1  0.21434542  0.21303238  0.33760737  1
  N  N37  1  0.11288290  0.09143828  0.10307070  1
  N  N38  1  0.89287599  0.19641682  0.87421013  1
  N  N39  1  0.78441551  0.07415828  0.59202431  1
  N  N40  1  0.51803878  0.23287860  0.31572998  1
  N  N41  1  0.44011341  0.08779158  0.10867986  1
  N  N42  1  0.22601320  0.19526770  0.87212571  1
  N  N43  1  0.12552555  0.06539810  0.56563717  1
  N  N44  1  0.89946130  0.22727078  0.33570678  1
  N  N45  1  0.78578528  0.08886782  0.11491814  1
  N  N46  1  0.55878575  0.19687828  0.90623614  1
  N  N47  1  0.44419712  0.11467405  0.55840408  1
  N  N48  1  0.21937562  0.54176367  0.34177308  1
  N  N49  1  0.14570787  0.41556069  0.08652628  1
  N  N50  1  0.89060176  0.53829709  0.84998875  1
  N  N51  1  0.76351809  0.46131724  0.58343751  1
  N  N52  1  0.55836932  0.53563327  0.33920929  1
  N  N53  1  0.43545268  0.44537519  0.09212400  1
  N  N54  1  0.25417426  0.48728548  0.81962505  1
  N  N55  1  0.09935133  0.45005580  0.58037416  1
  N  N56  1  0.89004140  0.53924391  0.34860369  1
  N  N57  1  0.75667428  0.41753414  0.08482355  1
  N  N58  1  0.57379279  0.49000364  0.82336751  1
  N  N59  1  0.43531871  0.44547848  0.57094023  1
  N  N60  1  0.21946909  0.86957982  0.34132795  1
  N  N61  1  0.11332259  0.75965771  0.10444268  1
  N  N62  1  0.86140030  0.89176583  0.83507025  1
  N  N63  1  0.81164261  0.74762409  0.58323568  1
  N  N64  1  0.56231798  0.86998611  0.35088948  1
  N  N65  1  0.44594696  0.76204995  0.12102614  1
  N  N66  1  0.20208570  0.90178078  0.82718841  1
  N  N67  1  0.11024326  0.75701558  0.59711296  1
  N  N68  1  0.90801582  0.83903083  0.33362596  1
  N  N69  1  0.76021355  0.79652169  0.08290906  1
  N  N70  1  0.55631237  0.89334726  0.84320801  1
  N  N71  1  0.42699840  0.74572803  0.60192792  1
