# generated using pymatgen
data_Gd2Al7N9
_symmetry_space_group_name_H-M   'P 1'
_cell_length_a   9.84088473
_cell_length_b   9.87794448
_cell_length_c   10.61072918
_cell_angle_alpha   89.05596585
_cell_angle_beta   89.60796163
_cell_angle_gamma   60.03746261
_symmetry_Int_Tables_number   1
_chemical_formula_structural   Gd2Al7N9
_chemical_formula_sum   'Gd8 Al28 N36'
_cell_volume   893.47190321
_cell_formula_units_Z   4
loop_
 _symmetry_equiv_pos_site_id
 _symmetry_equiv_pos_as_xyz
  1  'x, y, z'
loop_
 _atom_site_type_symbol
 _atom_site_label
 _atom_site_symmetry_multiplicity
 _atom_site_fract_x
 _atom_site_fract_y
 _atom_site_fract_z
 _atom_site_occupancy
  Al  Al0  1  0.11515652  0.10189724  0.29584902  1
  Al  Al1  1  0.22816233  0.20174356  0.05226935  1
  Al  Al2  1  0.76634261  0.09958293  0.88197193  1
  Al  Al3  1  0.44245763  0.09277006  0.27942003  1
  Al  Al4  1  0.54143177  0.21662686  0.05809070  1
  Al  Al5  1  0.11281550  0.08951282  0.81879577  1
  Al  Al6  1  0.89773360  0.19965641  0.04915746  1
  Al  Al7  1  0.44523478  0.09626733  0.81736107  1
  Al  Al8  1  0.12709295  0.41825786  0.29245132  1
  Al  Al9  1  0.23277562  0.53320606  0.05291523  1
  Al  Al10  1  0.77040139  0.42647975  0.87383214  1
  Al  Al11  1  0.88967754  0.54821755  0.64235156  1
  Al  Al12  1  0.44249048  0.42991121  0.29176098  1
  Al  Al13  1  0.54652616  0.53737903  0.05095534  1
  Al  Al14  1  0.12507150  0.41946730  0.81201530  1
  Al  Al15  1  0.21920065  0.54347943  0.54537331  1
  Al  Al16  1  0.79196278  0.44420583  0.37950815  1
  Al  Al17  1  0.44175277  0.42793610  0.80585038  1
  Al  Al18  1  0.53532796  0.55443994  0.54084146  1
  Al  Al19  1  0.11778080  0.74514210  0.30327804  1
  Al  Al20  1  0.21935631  0.87272905  0.06690028  1
  Al  Al21  1  0.77356678  0.78052176  0.81451166  1
  Al  Al22  1  0.90260870  0.84997648  0.53231916  1
  Al  Al23  1  0.44565637  0.75716896  0.29146136  1
  Al  Al24  1  0.55571201  0.87976616  0.05677967  1
  Al  Al25  1  0.21562256  0.86562303  0.53228619  1
  Al  Al26  1  0.78087630  0.75881335  0.28651376  1
  Al  Al27  1  0.89248711  0.87173637  0.05839224  1
  Gd  Gd28  1  0.87017288  0.21164794  0.60125407  1
  Gd  Gd29  1  0.20305272  0.20061745  0.55551772  1
  Gd  Gd30  1  0.79415774  0.09490434  0.31334973  1
  Gd  Gd31  1  0.52856960  0.21493681  0.54614792  1
  Gd  Gd32  1  0.89557689  0.53836155  0.07816199  1
  Gd  Gd33  1  0.10216017  0.76785635  0.78846442  1
  Gd  Gd34  1  0.43589197  0.77400765  0.80078599  1
  Gd  Gd35  1  0.58048239  0.84946355  0.54050742  1
  N  N36  1  0.23371387  0.19758100  0.34032489  1
  N  N37  1  0.10765956  0.09911454  0.11291944  1
  N  N38  1  0.88757343  0.20334152  0.85210469  1
  N  N39  1  0.77913569  0.06473667  0.54520212  1
  N  N40  1  0.53268081  0.21368648  0.32938360  1
  N  N41  1  0.44270126  0.09485081  0.09938316  1
  N  N42  1  0.21807251  0.20431530  0.86721460  1
  N  N43  1  0.12199595  0.04427930  0.64321812  1
  N  N44  1  0.92016976  0.22297874  0.37969740  1
  N  N45  1  0.77758709  0.09945140  0.07514391  1
  N  N46  1  0.54611470  0.21352718  0.86646263  1
  N  N47  1  0.43865226  0.07574765  0.64149642  1
  N  N48  1  0.23183938  0.52658475  0.36043864  1
  N  N49  1  0.15376884  0.40585481  0.11299269  1
  N  N50  1  0.88568978  0.53560782  0.83343629  1
  N  N51  1  0.75652063  0.48870356  0.56229149  1
  N  N52  1  0.55313834  0.53573187  0.35569613  1
  N  N53  1  0.44393173  0.43205113  0.11129188  1
  N  N54  1  0.23239798  0.51919558  0.87376916  1
  N  N55  1  0.11258234  0.44553156  0.63039683  1
  N  N56  1  0.89798760  0.53671903  0.30484918  1
  N  N57  1  0.76647157  0.41222228  0.05677681  1
  N  N58  1  0.55126361  0.52445890  0.86758161  1
  N  N59  1  0.42912514  0.45823775  0.62380596  1
  N  N60  1  0.21792867  0.87598388  0.34539148  1
  N  N61  1  0.11304431  0.75397206  0.11585845  1
  N  N62  1  0.87104862  0.88324126  0.88049506  1
  N  N63  1  0.81433265  0.76042858  0.63976518  1
  N  N64  1  0.55635407  0.87046602  0.32754512  1
  N  N65  1  0.44714898  0.75701413  0.10640148  1
  N  N66  1  0.20311650  0.89350963  0.89337333  1
  N  N67  1  0.11359515  0.75591685  0.57233711  1
  N  N68  1  0.90538902  0.83315893  0.35371310  1
  N  N69  1  0.76393497  0.79523040  0.11188605  1
  N  N70  1  0.56764564  0.88500155  0.87649733  1
  N  N71  1  0.42175561  0.75968362  0.58638480  1
