# generated using pymatgen
data_Gd2Al7N9
_symmetry_space_group_name_H-M   'P 1'
_cell_length_a   9.84276270
_cell_length_b   9.88484899
_cell_length_c   10.56489569
_cell_angle_alpha   88.93033540
_cell_angle_beta   89.82386012
_cell_angle_gamma   60.04776415
_symmetry_Int_Tables_number   1
_chemical_formula_structural   Gd2Al7N9
_chemical_formula_sum   'Gd8 Al28 N36'
_cell_volume   890.44017625
_cell_formula_units_Z   4
loop_
 _symmetry_equiv_pos_site_id
 _symmetry_equiv_pos_as_xyz
  1  'x, y, z'
loop_
 _atom_site_type_symbol
 _atom_site_label
 _atom_site_symmetry_multiplicity
 _atom_site_fract_x
 _atom_site_fract_y
 _atom_site_fract_z
 _atom_site_occupancy
  Al  Al0  1  0.11596428  0.09760847  0.29192611  1
  Al  Al1  1  0.22626085  0.20261116  0.05187173  1
  Al  Al2  1  0.76692665  0.10512520  0.88147283  1
  Al  Al3  1  0.43927576  0.09325550  0.27997209  1
  Al  Al4  1  0.53971132  0.21728219  0.05635391  1
  Al  Al5  1  0.11063842  0.09324517  0.81875103  1
  Al  Al6  1  0.89043630  0.20928188  0.05229013  1
  Al  Al7  1  0.44430781  0.09818921  0.81838302  1
  Al  Al8  1  0.12081904  0.41951960  0.29178595  1
  Al  Al9  1  0.23074178  0.53455755  0.05480783  1
  Al  Al10  1  0.76578756  0.43331954  0.81265124  1
  Al  Al11  1  0.89261895  0.54979592  0.64613650  1
  Al  Al12  1  0.44034213  0.42803771  0.29420764  1
  Al  Al13  1  0.55301056  0.53119039  0.05817300  1
  Al  Al14  1  0.12838031  0.42135689  0.81417806  1
  Al  Al15  1  0.22034367  0.54589126  0.54686855  1
  Al  Al16  1  0.78342112  0.42471996  0.29981798  1
  Al  Al17  1  0.44373504  0.42984493  0.81091655  1
  Al  Al18  1  0.54419737  0.55145132  0.54792353  1
  Al  Al19  1  0.11816025  0.74409124  0.30245875  1
  Al  Al20  1  0.21975314  0.87318488  0.06509465  1
  Al  Al21  1  0.77309653  0.78450066  0.81366492  1
  Al  Al22  1  0.90488810  0.84836936  0.53107812  1
  Al  Al23  1  0.44646470  0.75667800  0.29356783  1
  Al  Al24  1  0.55503071  0.87939712  0.05781426  1
  Al  Al25  1  0.21999305  0.86512163  0.53192868  1
  Al  Al26  1  0.78325864  0.75113603  0.28547503  1
  Al  Al27  1  0.89196079  0.87183166  0.05562053  1
  Gd  Gd28  1  0.87893454  0.20902346  0.57693131  1
  Gd  Gd29  1  0.20573193  0.20504093  0.55605910  1
  Gd  Gd30  1  0.78780499  0.08674619  0.30707484  1
  Gd  Gd31  1  0.53248022  0.22107031  0.55120341  1
  Gd  Gd32  1  0.89038644  0.53688153  0.06475177  1
  Gd  Gd33  1  0.10277805  0.76902015  0.78885539  1
  Gd  Gd34  1  0.44099057  0.76736528  0.80231256  1
  Gd  Gd35  1  0.57811826  0.86107892  0.53978475  1
  N  N36  1  0.23027698  0.19675548  0.33944097  1
  N  N37  1  0.10738647  0.09916854  0.10937391  1
  N  N38  1  0.88624785  0.21369869  0.86012408  1
  N  N39  1  0.78051206  0.06178027  0.54353012  1
  N  N40  1  0.52825535  0.21310583  0.33418302  1
  N  N41  1  0.44170329  0.09547836  0.09893794  1
  N  N42  1  0.21886911  0.20601668  0.86620501  1
  N  N43  1  0.12362428  0.04742373  0.64058233  1
  N  N44  1  0.91445251  0.21769839  0.36404662  1
  N  N45  1  0.77550532  0.10003151  0.07313950  1
  N  N46  1  0.54597100  0.21479046  0.86608202  1
  N  N47  1  0.43904936  0.08362701  0.64132514  1
  N  N48  1  0.23050515  0.52591435  0.36125966  1
  N  N49  1  0.14720614  0.40892131  0.11131396  1
  N  N50  1  0.89131860  0.54024955  0.83796995  1
  N  N51  1  0.74814868  0.47542219  0.63182997  1
  N  N52  1  0.55872586  0.53037298  0.36037320  1
  N  N53  1  0.44162107  0.43111517  0.11354272  1
  N  N54  1  0.23490980  0.52121511  0.87575005  1
  N  N55  1  0.11315282  0.44908647  0.63170939  1
  N  N56  1  0.89529048  0.53254179  0.30716826  1
  N  N57  1  0.76193890  0.40792047  0.11865998  1
  N  N58  1  0.56335697  0.51678983  0.87916089  1
  N  N59  1  0.42701080  0.46585040  0.62917940  1
  N  N60  1  0.21975819  0.87336872  0.34455435  1
  N  N61  1  0.11227665  0.75553129  0.11445592  1
  N  N62  1  0.86993029  0.88857438  0.87710364  1
  N  N63  1  0.81324410  0.76081183  0.63726007  1
  N  N64  1  0.55734303  0.86981337  0.32544687  1
  N  N65  1  0.44783966  0.75544416  0.10737953  1
  N  N66  1  0.20609416  0.89402091  0.89016436  1
  N  N67  1  0.11525376  0.75812291  0.57252850  1
  N  N68  1  0.90689053  0.82719203  0.35299519  1
  N  N69  1  0.76628270  0.79135047  0.10940972  1
  N  N70  1  0.56678518  0.88566696  0.87517829  1
  N  N71  1  0.42786412  0.76107524  0.58392945  1
