# generated using pymatgen
data_Gd2Al7N9
_symmetry_space_group_name_H-M   'P 1'
_cell_length_a   9.88720093
_cell_length_b   9.95504614
_cell_length_c   10.42203665
_cell_angle_alpha   89.22972380
_cell_angle_beta   89.77396999
_cell_angle_gamma   59.93531655
_symmetry_Int_Tables_number   1
_chemical_formula_structural   Gd2Al7N9
_chemical_formula_sum   'Gd8 Al28 N36'
_cell_volume   887.71778467
_cell_formula_units_Z   4
loop_
 _symmetry_equiv_pos_site_id
 _symmetry_equiv_pos_as_xyz
  1  'x, y, z'
loop_
 _atom_site_type_symbol
 _atom_site_label
 _atom_site_symmetry_multiplicity
 _atom_site_fract_x
 _atom_site_fract_y
 _atom_site_fract_z
 _atom_site_occupancy
  Al  Al0  1  0.11141074  0.09938359  0.38692198  1
  Al  Al1  1  0.22259320  0.21049237  0.15546218  1
  Al  Al2  1  0.78636337  0.08950033  0.92968778  1
  Al  Al3  1  0.42987230  0.11674526  0.37922182  1
  Al  Al4  1  0.54470838  0.21338291  0.12865515  1
  Al  Al5  1  0.10849284  0.10630607  0.93046751  1
  Al  Al6  1  0.88644271  0.21324522  0.15793172  1
  Al  Al7  1  0.44548783  0.08799599  0.92624212  1
  Al  Al8  1  0.10360876  0.43378726  0.39743759  1
  Al  Al9  1  0.22651594  0.53892069  0.15763136  1
  Al  Al10  1  0.77784390  0.40695990  0.90396115  1
  Al  Al11  1  0.89278404  0.54255171  0.65215752  1
  Al  Al12  1  0.43489670  0.43317725  0.39155418  1
  Al  Al13  1  0.55358331  0.52893087  0.15287215  1
  Al  Al14  1  0.13335256  0.40976410  0.90263357  1
  Al  Al15  1  0.22502771  0.53401128  0.63472290  1
  Al  Al16  1  0.77124305  0.44471797  0.39944578  1
  Al  Al17  1  0.45233066  0.41321212  0.91006109  1
  Al  Al18  1  0.54529247  0.53454914  0.64580912  1
  Al  Al19  1  0.11025881  0.74717135  0.39350956  1
  Al  Al20  1  0.21675372  0.87754419  0.10557575  1
  Al  Al21  1  0.77113939  0.78031862  0.85241546  1
  Al  Al22  1  0.89918497  0.87198653  0.64984395  1
  Al  Al23  1  0.43801463  0.75689808  0.32410302  1
  Al  Al24  1  0.55641305  0.88207002  0.15601003  1
  Al  Al25  1  0.22699058  0.85441638  0.56977856  1
  Al  Al26  1  0.78642935  0.75025878  0.37053923  1
  Al  Al27  1  0.89221443  0.87023699  0.15291952  1
  Gd  Gd28  1  0.89024770  0.21332874  0.65134767  1
  Gd  Gd29  1  0.22735634  0.19999960  0.65058892  1
  Gd  Gd30  1  0.76585457  0.09822780  0.37947239  1
  Gd  Gd31  1  0.55412076  0.20649695  0.67947486  1
  Gd  Gd32  1  0.88620009  0.54480786  0.11925973  1
  Gd  Gd33  1  0.11983552  0.74388307  0.88924409  1
  Gd  Gd34  1  0.46187851  0.74831311  0.87719813  1
  Gd  Gd35  1  0.55721764  0.85515910  0.59751259  1
  N  N36  1  0.21280359  0.21582556  0.34045016  1
  N  N37  1  0.10513640  0.10772270  0.11706651  1
  N  N38  1  0.89990138  0.19351231  0.87224737  1
  N  N39  1  0.78743674  0.07700231  0.59364985  1
  N  N40  1  0.51636838  0.23407176  0.31338733  1
  N  N41  1  0.43665872  0.09072370  0.10900869  1
  N  N42  1  0.22690407  0.19668439  0.87194759  1
  N  N43  1  0.12456454  0.06978055  0.56934594  1
  N  N44  1  0.89373886  0.23129039  0.34326475  1
  N  N45  1  0.78766447  0.09171108  0.11815721  1
  N  N46  1  0.56229873  0.19454618  0.91130786  1
  N  N47  1  0.45124831  0.10665885  0.55578710  1
  N  N48  1  0.21816051  0.53715417  0.34110779  1
  N  N49  1  0.14651197  0.41717535  0.08537917  1
  N  N50  1  0.89306552  0.53072826  0.85306826  1
  N  N51  1  0.75395043  0.47469235  0.58190068  1
  N  N52  1  0.55543742  0.53377796  0.33637273  1
  N  N53  1  0.43306361  0.44665960  0.08980577  1
  N  N54  1  0.25625977  0.48491615  0.81800023  1
  N  N55  1  0.09714582  0.44779889  0.57991032  1
  N  N56  1  0.88684792  0.54053976  0.34263230  1
  N  N57  1  0.75533862  0.41658627  0.08465172  1
  N  N58  1  0.58195432  0.47668371  0.82503002  1
  N  N59  1  0.43651811  0.44208770  0.57167533  1
  N  N60  1  0.22478495  0.86225400  0.37402699  1
  N  N61  1  0.10989533  0.75717451  0.11128533  1
  N  N62  1  0.87233409  0.89690306  0.83867237  1
  N  N63  1  0.80819930  0.75160382  0.63119187  1
  N  N64  1  0.55875845  0.86899438  0.34889491  1
  N  N65  1  0.44646512  0.76231687  0.13599615  1
  N  N66  1  0.21639808  0.89455799  0.92103622  1
  N  N67  1  0.10938742  0.75309265  0.58896381  1
  N  N68  1  0.90245220  0.84280641  0.33577552  1
  N  N69  1  0.75880447  0.79942527  0.09157720  1
  N  N70  1  0.55509366  0.90455552  0.83139194  1
  N  N71  1  0.41358841  0.74767417  0.65559997  1
