# generated using pymatgen
data_Gd2Al7N9
_symmetry_space_group_name_H-M   'P 1'
_cell_length_a   9.86148570
_cell_length_b   9.89697307
_cell_length_c   10.58017269
_cell_angle_alpha   89.50879361
_cell_angle_beta   89.83726431
_cell_angle_gamma   59.99644275
_symmetry_Int_Tables_number   1
_chemical_formula_structural   Gd2Al7N9
_chemical_formula_sum   'Gd8 Al28 N36'
_cell_volume   894.20272844
_cell_formula_units_Z   4
loop_
 _symmetry_equiv_pos_site_id
 _symmetry_equiv_pos_as_xyz
  1  'x, y, z'
loop_
 _atom_site_type_symbol
 _atom_site_label
 _atom_site_symmetry_multiplicity
 _atom_site_fract_x
 _atom_site_fract_y
 _atom_site_fract_z
 _atom_site_occupancy
  Al  Al0  1  0.10530830  0.10920670  0.33863396  1
  Al  Al1  1  0.22494883  0.21411650  0.15563228  1
  Al  Al2  1  0.76672975  0.09630469  0.92738683  1
  Al  Al3  1  0.43586383  0.10724114  0.38482377  1
  Al  Al4  1  0.54013819  0.21718297  0.14016737  1
  Al  Al5  1  0.12088285  0.08303820  0.85273013  1
  Al  Al6  1  0.89396590  0.20421414  0.08563831  1
  Al  Al7  1  0.44316533  0.08838382  0.91869965  1
  Al  Al8  1  0.10189939  0.44241130  0.39587135  1
  Al  Al9  1  0.22982902  0.53732219  0.15270332  1
  Al  Al10  1  0.77954390  0.41274112  0.89735249  1
  Al  Al11  1  0.89879030  0.54410588  0.66047930  1
  Al  Al12  1  0.43778074  0.43210929  0.39304138  1
  Al  Al13  1  0.55489674  0.52901565  0.15570770  1
  Al  Al14  1  0.13463145  0.41118466  0.89692053  1
  Al  Al15  1  0.22878711  0.53050621  0.63251236  1
  Al  Al16  1  0.77597948  0.45360117  0.41028428  1
  Al  Al17  1  0.44875592  0.41514805  0.90502169  1
  Al  Al18  1  0.54297223  0.53660766  0.64810263  1
  Al  Al19  1  0.11405480  0.75617731  0.34076246  1
  Al  Al20  1  0.21128596  0.88399429  0.10319584  1
  Al  Al21  1  0.77807587  0.78152494  0.83738594  1
  Al  Al22  1  0.90786304  0.84772359  0.56658363  1
  Al  Al23  1  0.43439088  0.76175214  0.32820835  1
  Al  Al24  1  0.54455875  0.88853080  0.16013168  1
  Al  Al25  1  0.22208382  0.85699336  0.57801068  1
  Al  Al26  1  0.78316521  0.75990195  0.32594508  1
  Al  Al27  1  0.88977768  0.87507451  0.09753159  1
  Gd  Gd28  1  0.87108222  0.21870850  0.63515596  1
  Gd  Gd29  1  0.21317794  0.19655490  0.62911888  1
  Gd  Gd30  1  0.78310358  0.10142172  0.36149157  1
  Gd  Gd31  1  0.55188814  0.19479830  0.66606230  1
  Gd  Gd32  1  0.88886360  0.54255408  0.11499136  1
  Gd  Gd33  1  0.10405716  0.78008566  0.82176737  1
  Gd  Gd34  1  0.46270073  0.74315959  0.88037037  1
  Gd  Gd35  1  0.57774908  0.82809920  0.59164549  1
  N  N36  1  0.21847850  0.21971904  0.34180878  1
  N  N37  1  0.10013796  0.10576858  0.15475976  1
  N  N38  1  0.90026538  0.18979929  0.89634908  1
  N  N39  1  0.78550919  0.06577998  0.58418382  1
  N  N40  1  0.52347003  0.22686291  0.32178696  1
  N  N41  1  0.43612455  0.09502382  0.10196453  1
  N  N42  1  0.23082710  0.19780270  0.85245105  1
  N  N43  1  0.11474160  0.03918831  0.67655973  1
  N  N44  1  0.90937918  0.23234211  0.41418946  1
  N  N45  1  0.77529357  0.10294293  0.11659707  1
  N  N46  1  0.55488590  0.19684929  0.88961348  1
  N  N47  1  0.44671625  0.08502887  0.55849598  1
  N  N48  1  0.22531015  0.53429559  0.33536339  1
  N  N49  1  0.14886240  0.41556544  0.07971287  1
  N  N50  1  0.89856566  0.52166877  0.85482709  1
  N  N51  1  0.74309252  0.50449160  0.58652499  1
  N  N52  1  0.55846139  0.53342161  0.33772165  1
  N  N53  1  0.43801117  0.44125148  0.08788040  1
  N  N54  1  0.24659677  0.50472566  0.82161180  1
  N  N55  1  0.09577617  0.45257495  0.57694812  1
  N  N56  1  0.88930803  0.54094822  0.33615442  1
  N  N57  1  0.75229024  0.42310530  0.07810680  1
  N  N58  1  0.58638763  0.47235070  0.82160878  1
  N  N59  1  0.44063119  0.43743010  0.57118952  1
  N  N60  1  0.21979142  0.87992076  0.39025506  1
  N  N61  1  0.10597467  0.77016809  0.15236943  1
  N  N62  1  0.87233318  0.87854140  0.91923435  1
  N  N63  1  0.82184539  0.75602372  0.66557264  1
  N  N64  1  0.55054572  0.87267570  0.35026521  1
  N  N65  1  0.43980039  0.76508247  0.14182465  1
  N  N66  1  0.21427730  0.89233004  0.93071271  1
  N  N67  1  0.11984830  0.74583549  0.60440321  1
  N  N68  1  0.90388954  0.83758651  0.38879755  1
  N  N69  1  0.76026019  0.79923474  0.14969330  1
  N  N70  1  0.56324026  0.89183680  0.84574296  1
  N  N71  1  0.41347982  0.74943712  0.66043093  1
