# generated using pymatgen
data_Gd2Al7N9
_symmetry_space_group_name_H-M   'P 1'
_cell_length_a   9.82980424
_cell_length_b   9.97163945
_cell_length_c   10.58759069
_cell_angle_alpha   89.36544812
_cell_angle_beta   89.39984361
_cell_angle_gamma   59.79881187
_symmetry_Int_Tables_number   1
_chemical_formula_structural   Gd2Al7N9
_chemical_formula_sum   'Gd8 Al28 N36'
_cell_volume   896.85361569
_cell_formula_units_Z   4
loop_
 _symmetry_equiv_pos_site_id
 _symmetry_equiv_pos_as_xyz
  1  'x, y, z'
loop_
 _atom_site_type_symbol
 _atom_site_label
 _atom_site_symmetry_multiplicity
 _atom_site_fract_x
 _atom_site_fract_y
 _atom_site_fract_z
 _atom_site_occupancy
  Al  Al0  1  0.11185343  0.10975210  0.31009424  1
  Al  Al1  1  0.22915628  0.20508321  0.06418578  1
  Al  Al2  1  0.76023494  0.09841982  0.89612082  1
  Al  Al3  1  0.43938388  0.09083972  0.30036636  1
  Al  Al4  1  0.54575819  0.21878792  0.13665958  1
  Al  Al5  1  0.11575856  0.08603646  0.82954592  1
  Al  Al6  1  0.89319323  0.20287980  0.05968231  1
  Al  Al7  1  0.44084918  0.08869248  0.81970884  1
  Al  Al8  1  0.12224616  0.42365427  0.29925902  1
  Al  Al9  1  0.23576517  0.53396847  0.06776635  1
  Al  Al10  1  0.77414473  0.41763448  0.88069466  1
  Al  Al11  1  0.88872454  0.55249267  0.65367596  1
  Al  Al12  1  0.44450138  0.43711614  0.36033218  1
  Al  Al13  1  0.56121513  0.53068516  0.13966741  1
  Al  Al14  1  0.12779611  0.41875546  0.82259377  1
  Al  Al15  1  0.21565050  0.54505057  0.54645954  1
  Al  Al16  1  0.78456163  0.45391106  0.39179303  1
  Al  Al17  1  0.45662328  0.40351545  0.85745807  1
  Al  Al18  1  0.54140275  0.54314522  0.62669944  1
  Al  Al19  1  0.11669652  0.74630957  0.31372920  1
  Al  Al20  1  0.21292905  0.88072396  0.08101034  1
  Al  Al21  1  0.77332261  0.78476972  0.82605220  1
  Al  Al22  1  0.90176180  0.84788136  0.54467142  1
  Al  Al23  1  0.44010691  0.77053581  0.30077115  1
  Al  Al24  1  0.55607429  0.88962788  0.06971086  1
  Al  Al25  1  0.21483111  0.86479169  0.55568800  1
  Al  Al26  1  0.77916338  0.76053185  0.30112326  1
  Al  Al27  1  0.89152748  0.87450224  0.07290234  1
  Gd  Gd28  1  0.86051313  0.22007888  0.61972549  1
  Gd  Gd29  1  0.19178580  0.20726794  0.56422279  1
  Gd  Gd30  1  0.80626669  0.09096510  0.33610805  1
  Gd  Gd31  1  0.54174560  0.19591192  0.58317927  1
  Gd  Gd32  1  0.89087288  0.54356464  0.08580122  1
  Gd  Gd33  1  0.10823596  0.76624278  0.80066095  1
  Gd  Gd34  1  0.45199843  0.74661290  0.85706395  1
  Gd  Gd35  1  0.56890921  0.83187732  0.56301965  1
  N  N36  1  0.22908643  0.20599571  0.35099183  1
  N  N37  1  0.10322346  0.10448361  0.12773170  1
  N  N38  1  0.89261558  0.19569953  0.87121164  1
  N  N39  1  0.79151531  0.06120722  0.55274845  1
  N  N40  1  0.53755457  0.21536445  0.32691866  1
  N  N41  1  0.44195176  0.09861179  0.11828885  1
  N  N42  1  0.21881450  0.20434970  0.87855996  1
  N  N43  1  0.11077074  0.05234298  0.65387404  1
  N  N44  1  0.91767489  0.23271435  0.39689355  1
  N  N45  1  0.77268974  0.10301949  0.09078614  1
  N  N46  1  0.55771376  0.19473265  0.82709094  1
  N  N47  1  0.42566154  0.06704479  0.64445136  1
  N  N48  1  0.22012860  0.53362717  0.36303382  1
  N  N49  1  0.14971325  0.41062862  0.11955865  1
  N  N50  1  0.88557983  0.53478947  0.84373181  1
  N  N51  1  0.74849474  0.50244687  0.57066140  1
  N  N52  1  0.56374798  0.54235204  0.32048389  1
  N  N53  1  0.44882594  0.43181554  0.10474734  1
  N  N54  1  0.23887305  0.51666114  0.88414457  1
  N  N55  1  0.11323564  0.44920375  0.64141609  1
  N  N56  1  0.89420248  0.53994725  0.31309261  1
  N  N57  1  0.75708162  0.41947531  0.05986837  1
  N  N58  1  0.58166566  0.48372994  0.80313573  1
  N  N59  1  0.43865535  0.45020733  0.55268550  1
  N  N60  1  0.21901367  0.88025221  0.36414171  1
  N  N61  1  0.11307439  0.75849758  0.12806264  1
  N  N62  1  0.87357424  0.88191907  0.89493459  1
  N  N63  1  0.80672080  0.76544281  0.65081211  1
  N  N64  1  0.55319096  0.87330204  0.34784924  1
  N  N65  1  0.44468151  0.76676021  0.11424718  1
  N  N66  1  0.20311179  0.89463010  0.90713140  1
  N  N67  1  0.11272329  0.75341055  0.58571952  1
  N  N68  1  0.90561342  0.83210627  0.36578848  1
  N  N69  1  0.76277357  0.79848561  0.12608243  1
  N  N70  1  0.56691242  0.88658773  0.88842103  1
  N  N71  1  0.40751590  0.75443674  0.64051625  1
