# generated using pymatgen
data_Gd2Al7N9
_symmetry_space_group_name_H-M   'P 1'
_cell_length_a   9.79906628
_cell_length_b   9.87473195
_cell_length_c   10.75191522
_cell_angle_alpha   89.39457576
_cell_angle_beta   89.26489151
_cell_angle_gamma   60.05716810
_symmetry_Int_Tables_number   1
_chemical_formula_structural   Gd2Al7N9
_chemical_formula_sum   'Gd8 Al28 N36'
_cell_volume   901.43747530
_cell_formula_units_Z   4
loop_
 _symmetry_equiv_pos_site_id
 _symmetry_equiv_pos_as_xyz
  1  'x, y, z'
loop_
 _atom_site_type_symbol
 _atom_site_label
 _atom_site_symmetry_multiplicity
 _atom_site_fract_x
 _atom_site_fract_y
 _atom_site_fract_z
 _atom_site_occupancy
  Al  Al0  1  0.10829617  0.10317313  0.30717450  1
  Al  Al1  1  0.21788798  0.20779519  0.07947474  1
  Al  Al2  1  0.76859925  0.09442099  0.90457656  1
  Al  Al3  1  0.43878905  0.09573661  0.32229123  1
  Al  Al4  1  0.54528661  0.21936725  0.12904510  1
  Al  Al5  1  0.12041050  0.08614786  0.82944410  1
  Al  Al6  1  0.89414186  0.20204943  0.06131905  1
  Al  Al7  1  0.44533410  0.09752226  0.90919476  1
  Al  Al8  1  0.11928031  0.42705370  0.29606741  1
  Al  Al9  1  0.22874370  0.54057620  0.06570239  1
  Al  Al10  1  0.77370028  0.41591276  0.87951320  1
  Al  Al11  1  0.88874947  0.55223481  0.65538689  1
  Al  Al12  1  0.44492891  0.43191476  0.37306088  1
  Al  Al13  1  0.56036734  0.52823490  0.13640678  1
  Al  Al14  1  0.13002117  0.41627190  0.82220328  1
  Al  Al15  1  0.21584687  0.54485752  0.54700516  1
  Al  Al16  1  0.78429536  0.44965444  0.38916668  1
  Al  Al17  1  0.45876957  0.41153502  0.89467392  1
  Al  Al18  1  0.54505637  0.53928302  0.62600095  1
  Al  Al19  1  0.11458106  0.74880267  0.31733828  1
  Al  Al20  1  0.21441103  0.87693515  0.07703481  1
  Al  Al21  1  0.77247309  0.78368071  0.82779324  1
  Al  Al22  1  0.89946461  0.85262118  0.54863417  1
  Al  Al23  1  0.43766109  0.76612152  0.29843411  1
  Al  Al24  1  0.55763838  0.87643687  0.08289837  1
  Al  Al25  1  0.22021129  0.86523743  0.55611778  1
  Al  Al26  1  0.78167819  0.75732250  0.29855880  1
  Al  Al27  1  0.89348625  0.87377456  0.07521682  1
  Gd  Gd28  1  0.86929639  0.21775602  0.61771474  1
  Gd  Gd29  1  0.18771770  0.21548962  0.54763765  1
  Gd  Gd30  1  0.78690671  0.09743400  0.34654597  1
  Gd  Gd31  1  0.54035888  0.20447402  0.64134774  1
  Gd  Gd32  1  0.89182281  0.54397894  0.08059314  1
  Gd  Gd33  1  0.10647048  0.76478208  0.79913302  1
  Gd  Gd34  1  0.45216726  0.75064638  0.84462840  1
  Gd  Gd35  1  0.57651800  0.83361537  0.54802561  1
  N  N36  1  0.22121513  0.20711234  0.33298745  1
  N  N37  1  0.10148806  0.09991980  0.12778257  1
  N  N38  1  0.89641009  0.19279799  0.87193088  1
  N  N39  1  0.77951235  0.06892209  0.56147454  1
  N  N40  1  0.52630249  0.22714664  0.30487286  1
  N  N41  1  0.44091159  0.09854335  0.09496684  1
  N  N42  1  0.21808285  0.20546135  0.88783523  1
  N  N43  1  0.12195787  0.05369630  0.65439179  1
  N  N44  1  0.91664894  0.22673219  0.39566387  1
  N  N45  1  0.77657773  0.10059046  0.09308161  1
  N  N46  1  0.55612114  0.19701736  0.86084941  1
  N  N47  1  0.43410000  0.08372805  0.56348332  1
  N  N48  1  0.21835917  0.53405143  0.36586892  1
  N  N49  1  0.14779147  0.41568781  0.12154351  1
  N  N50  1  0.88486248  0.53305764  0.84170259  1
  N  N51  1  0.75277484  0.49754656  0.56753614  1
  N  N52  1  0.56215976  0.53488700  0.31546228  1
  N  N53  1  0.45229201  0.43229197  0.07335784  1
  N  N54  1  0.23349480  0.52002478  0.88579903  1
  N  N55  1  0.11491860  0.44939019  0.64383963  1
  N  N56  1  0.89243784  0.53706408  0.30961205  1
  N  N57  1  0.75707212  0.41921449  0.05714483  1
  N  N58  1  0.57992688  0.48048430  0.80210967  1
  N  N59  1  0.44287248  0.44427455  0.55005625  1
  N  N60  1  0.21998741  0.87737973  0.36537640  1
  N  N61  1  0.11287308  0.75832124  0.13179431  1
  N  N62  1  0.87614767  0.87741963  0.89899189  1
  N  N63  1  0.80501798  0.76805012  0.65458934  1
  N  N64  1  0.55389481  0.86985860  0.33250715  1
  N  N65  1  0.44213692  0.76222225  0.11571503  1
  N  N66  1  0.20576382  0.89103540  0.90548089  1
  N  N67  1  0.11309931  0.75610668  0.58588594  1
  N  N68  1  0.90144392  0.83388029  0.37110982  1
  N  N69  1  0.76622839  0.79615265  0.12800272  1
  N  N70  1  0.57110988  0.88059833  0.89789257  1
  N  N71  1  0.41676239  0.75441688  0.63326244  1
