# generated using pymatgen
data_Gd2Al7N9
_symmetry_space_group_name_H-M   'P 1'
_cell_length_a   9.75528708
_cell_length_b   9.87660927
_cell_length_c   10.81270667
_cell_angle_alpha   89.28382859
_cell_angle_beta   88.91568161
_cell_angle_gamma   59.86743714
_symmetry_Int_Tables_number   1
_chemical_formula_structural   Gd2Al7N9
_chemical_formula_sum   'Gd8 Al28 N36'
_cell_volume   900.84674382
_cell_formula_units_Z   4
loop_
 _symmetry_equiv_pos_site_id
 _symmetry_equiv_pos_as_xyz
  1  'x, y, z'
loop_
 _atom_site_type_symbol
 _atom_site_label
 _atom_site_symmetry_multiplicity
 _atom_site_fract_x
 _atom_site_fract_y
 _atom_site_fract_z
 _atom_site_occupancy
  Al  Al0  1  0.10820645  0.09654052  0.31989600  1
  Al  Al1  1  0.23275205  0.20126166  0.14517796  1
  Al  Al2  1  0.76916614  0.09354020  0.91243928  1
  Al  Al3  1  0.44470382  0.09358466  0.36830541  1
  Al  Al4  1  0.54485169  0.21552597  0.13987464  1
  Al  Al5  1  0.12565520  0.08610063  0.82992485  1
  Al  Al6  1  0.89952590  0.19911956  0.06728337  1
  Al  Al7  1  0.43606359  0.10323913  0.91428128  1
  Al  Al8  1  0.11643838  0.43694298  0.30675663  1
  Al  Al9  1  0.23258815  0.53878016  0.07164040  1
  Al  Al10  1  0.77854062  0.41363687  0.88762526  1
  Al  Al11  1  0.88384111  0.55670581  0.66243681  1
  Al  Al12  1  0.44680418  0.43104538  0.38246790  1
  Al  Al13  1  0.56445742  0.52441885  0.14382965  1
  Al  Al14  1  0.13343351  0.41525180  0.82028264  1
  Al  Al15  1  0.21176051  0.54882928  0.55340068  1
  Al  Al16  1  0.78438601  0.45060334  0.39902883  1
  Al  Al17  1  0.46321074  0.40572463  0.90119514  1
  Al  Al18  1  0.54057243  0.53930546  0.63827396  1
  Al  Al19  1  0.11497516  0.75045532  0.32334222  1
  Al  Al20  1  0.21604907  0.87835971  0.08443804  1
  Al  Al21  1  0.77207334  0.78600613  0.83469440  1
  Al  Al22  1  0.89325131  0.85631181  0.55594356  1
  Al  Al23  1  0.44162655  0.76437761  0.30451007  1
  Al  Al24  1  0.55955288  0.87894252  0.08678282  1
  Al  Al25  1  0.21550964  0.86566379  0.56415540  1
  Al  Al26  1  0.78085783  0.75836806  0.30599478  1
  Al  Al27  1  0.89530352  0.87317510  0.08228590  1
  Gd  Gd28  1  0.85621485  0.22049285  0.63278018  1
  Gd  Gd29  1  0.17007087  0.22157110  0.55311161  1
  Gd  Gd30  1  0.78832938  0.10025263  0.35468505  1
  Gd  Gd31  1  0.52575398  0.20266456  0.64712291  1
  Gd  Gd32  1  0.89880775  0.54182525  0.08413571  1
  Gd  Gd33  1  0.11215687  0.76565064  0.80682469  1
  Gd  Gd34  1  0.45727633  0.74493082  0.86063837  1
  Gd  Gd35  1  0.57004825  0.82829419  0.55897483  1
  N  N36  1  0.22410985  0.20480743  0.32880555  1
  N  N37  1  0.10365949  0.09745660  0.14148586  1
  N  N38  1  0.90033809  0.19063136  0.88006420  1
  N  N39  1  0.76816416  0.07377123  0.56797231  1
  N  N40  1  0.52645308  0.22515049  0.31546000  1
  N  N41  1  0.44217326  0.10027192  0.09272716  1
  N  N42  1  0.22956608  0.20150020  0.85219993  1
  N  N43  1  0.11273884  0.05439939  0.65722418  1
  N  N44  1  0.92117176  0.22708790  0.41175576  1
  N  N45  1  0.77827917  0.09990352  0.10046807  1
  N  N46  1  0.55905876  0.19337443  0.86296830  1
  N  N47  1  0.42501723  0.08821900  0.54210894  1
  N  N48  1  0.21960603  0.53726135  0.37467535  1
  N  N49  1  0.15248581  0.41635131  0.13424384  1
  N  N50  1  0.88542431  0.53429214  0.84697474  1
  N  N51  1  0.74710577  0.50244899  0.57529525  1
  N  N52  1  0.56463072  0.53176916  0.32241495  1
  N  N53  1  0.45690221  0.42823560  0.07969546  1
  N  N54  1  0.23543099  0.51830634  0.89180506  1
  N  N55  1  0.10907168  0.45480535  0.64331906  1
  N  N56  1  0.89274192  0.53788590  0.31919887  1
  N  N57  1  0.76278320  0.41782140  0.06461099  1
  N  N58  1  0.58561874  0.47504245  0.80969310  1
  N  N59  1  0.44181393  0.44278722  0.55986805  1
  N  N60  1  0.22244864  0.87447263  0.37488401  1
  N  N61  1  0.11581655  0.75756691  0.13880491  1
  N  N62  1  0.87944265  0.87548191  0.90627264  1
  N  N63  1  0.79552232  0.77374531  0.66118822  1
  N  N64  1  0.55682926  0.86505646  0.34511300  1
  N  N65  1  0.44552121  0.76104237  0.12295827  1
  N  N66  1  0.20750054  0.89472831  0.91393030  1
  N  N67  1  0.10704338  0.75885330  0.59458625  1
  N  N68  1  0.90037030  0.83695675  0.37799692  1
  N  N69  1  0.76831629  0.79431317  0.13547845  1
  N  N70  1  0.57018532  0.88210177  0.90360683  1
  N  N71  1  0.40826405  0.75466306  0.64965357  1
