# generated using pymatgen
data_Gd2Al7N9
_symmetry_space_group_name_H-M   'P 1'
_cell_length_a   9.87510914
_cell_length_b   9.93560154
_cell_length_c   10.37418863
_cell_angle_alpha   89.83249715
_cell_angle_beta   90.10670502
_cell_angle_gamma   60.22502269
_symmetry_Int_Tables_number   1
_chemical_formula_structural   Gd2Al7N9
_chemical_formula_sum   'Gd8 Al28 N36'
_cell_volume   883.47876273
_cell_formula_units_Z   4
loop_
 _symmetry_equiv_pos_site_id
 _symmetry_equiv_pos_as_xyz
  1  'x, y, z'
loop_
 _atom_site_type_symbol
 _atom_site_label
 _atom_site_symmetry_multiplicity
 _atom_site_fract_x
 _atom_site_fract_y
 _atom_site_fract_z
 _atom_site_occupancy
  Al  Al0  1  0.11486018  0.09372664  0.38351992  1
  Al  Al1  1  0.22357471  0.20821709  0.15400012  1
  Al  Al2  1  0.78493118  0.08958455  0.92572647  1
  Al  Al3  1  0.43168789  0.11452209  0.37965508  1
  Al  Al4  1  0.54466640  0.21323766  0.12819431  1
  Al  Al5  1  0.10929220  0.09981080  0.92645004  1
  Al  Al6  1  0.88807776  0.21142654  0.15499236  1
  Al  Al7  1  0.44245202  0.08952249  0.92438862  1
  Al  Al8  1  0.10530547  0.43399174  0.39786469  1
  Al  Al9  1  0.22705270  0.53803427  0.15753392  1
  Al  Al10  1  0.77800186  0.40971594  0.90257647  1
  Al  Al11  1  0.88972874  0.54875006  0.64901358  1
  Al  Al12  1  0.43585742  0.43446144  0.39047101  1
  Al  Al13  1  0.55601555  0.52882010  0.15303892  1
  Al  Al14  1  0.12995746  0.41142255  0.90187330  1
  Al  Al15  1  0.22694984  0.53426478  0.63422854  1
  Al  Al16  1  0.77413202  0.44238133  0.40036749  1
  Al  Al17  1  0.45146673  0.41361839  0.91067155  1
  Al  Al18  1  0.55067706  0.53228632  0.64521472  1
  Al  Al19  1  0.11248593  0.75263709  0.39162073  1
  Al  Al20  1  0.21239077  0.87600844  0.14214885  1
  Al  Al21  1  0.76374897  0.78765095  0.89438888  1
  Al  Al22  1  0.89212550  0.86968657  0.64667259  1
  Al  Al23  1  0.44311213  0.75896096  0.32689846  1
  Al  Al24  1  0.55856449  0.88209737  0.15747560  1
  Al  Al25  1  0.22083445  0.85767336  0.61600344  1
  Al  Al26  1  0.79536599  0.74742209  0.40072166  1
  Al  Al27  1  0.89217277  0.86925010  0.15286222  1
  Gd  Gd28  1  0.89523730  0.20799074  0.64996293  1
  Gd  Gd29  1  0.22282479  0.20467705  0.64848079  1
  Gd  Gd30  1  0.76713521  0.09645707  0.37742444  1
  Gd  Gd31  1  0.55315661  0.21414532  0.67845363  1
  Gd  Gd32  1  0.88741125  0.54492142  0.13032598  1
  Gd  Gd33  1  0.11318726  0.74240446  0.89064439  1
  Gd  Gd34  1  0.45732226  0.74657296  0.88536033  1
  Gd  Gd35  1  0.55337711  0.86540790  0.61098380  1
  N  N36  1  0.21365549  0.21484894  0.34019925  1
  N  N37  1  0.10755262  0.10225512  0.11156394  1
  N  N38  1  0.89712775  0.19542966  0.87128552  1
  N  N39  1  0.78654409  0.07597644  0.59297449  1
  N  N40  1  0.51715752  0.23393060  0.31379796  1
  N  N41  1  0.43765431  0.08968135  0.10793630  1
  N  N42  1  0.22465175  0.19725894  0.87065196  1
  N  N43  1  0.13099348  0.06043014  0.56492994  1
  N  N44  1  0.89622884  0.22918104  0.34156674  1
  N  N45  1  0.78794018  0.08971186  0.11575437  1
  N  N46  1  0.56086391  0.19485325  0.91009768  1
  N  N47  1  0.44695166  0.11323470  0.55830519  1
  N  N48  1  0.21889770  0.53954081  0.34142797  1
  N  N49  1  0.14459812  0.41614478  0.08599096  1
  N  N50  1  0.88993187  0.53983390  0.85010728  1
  N  N51  1  0.75957916  0.46668104  0.58403848  1
  N  N52  1  0.55705908  0.53568770  0.33698426  1
  N  N53  1  0.43404299  0.44583816  0.09111165  1
  N  N54  1  0.25703789  0.48375377  0.81784713  1
  N  N55  1  0.09740373  0.45033057  0.58100039  1
  N  N56  1  0.88802375  0.54046658  0.34707681  1
  N  N57  1  0.75889217  0.41639445  0.08502482  1
  N  N58  1  0.58069795  0.47724523  0.82575001  1
  N  N59  1  0.43655327  0.44466874  0.57064601  1
  N  N60  1  0.21797217  0.86964158  0.33602632  1
  N  N61  1  0.10915203  0.75606191  0.10900506  1
  N  N62  1  0.86481373  0.89354892  0.83414820  1
  N  N63  1  0.80901788  0.75001223  0.58440501  1
  N  N64  1  0.56149641  0.87119751  0.34876343  1
  N  N65  1  0.44989940  0.76068909  0.13174665  1
  N  N66  1  0.20755429  0.89535756  0.88274549  1
  N  N67  1  0.10902167  0.75490053  0.59105435  1
  N  N68  1  0.90374628  0.84041010  0.33300939  1
  N  N69  1  0.75869875  0.79987446  0.07958531  1
  N  N70  1  0.55638471  0.89921580  0.83680602  1
  N  N71  1  0.42416922  0.74235675  0.65073751  1
