# generated using pymatgen
data_Gd2Al7N9
_symmetry_space_group_name_H-M   'P 1'
_cell_length_a   9.77856581
_cell_length_b   9.87124380
_cell_length_c   10.77497695
_cell_angle_alpha   89.32764967
_cell_angle_beta   89.22594993
_cell_angle_gamma   59.93533369
_symmetry_Int_Tables_number   1
_chemical_formula_structural   Gd2Al7N9
_chemical_formula_sum   'Gd8 Al28 N36'
_cell_volume   900.04427239
_cell_formula_units_Z   4
loop_
 _symmetry_equiv_pos_site_id
 _symmetry_equiv_pos_as_xyz
  1  'x, y, z'
loop_
 _atom_site_type_symbol
 _atom_site_label
 _atom_site_symmetry_multiplicity
 _atom_site_fract_x
 _atom_site_fract_y
 _atom_site_fract_z
 _atom_site_occupancy
  Al  Al0  1  0.11169075  0.10185678  0.30687491  1
  Al  Al1  1  0.22200005  0.20657605  0.08716012  1
  Al  Al2  1  0.76672061  0.09397141  0.90441203  1
  Al  Al3  1  0.44192092  0.09533642  0.35926199  1
  Al  Al4  1  0.54232169  0.21596584  0.13511783  1
  Al  Al5  1  0.12187896  0.08664749  0.82959437  1
  Al  Al6  1  0.89453649  0.20040625  0.06035226  1
  Al  Al7  1  0.44398978  0.09887861  0.90767649  1
  Al  Al8  1  0.12203097  0.42743390  0.29483941  1
  Al  Al9  1  0.23023261  0.54053055  0.06452163  1
  Al  Al10  1  0.77609370  0.41471711  0.88066828  1
  Al  Al11  1  0.88768690  0.55402523  0.65671467  1
  Al  Al12  1  0.44676752  0.43135337  0.37486039  1
  Al  Al13  1  0.56184983  0.52510764  0.13717605  1
  Al  Al14  1  0.13037018  0.41623914  0.82229599  1
  Al  Al15  1  0.21436443  0.54650223  0.54716223  1
  Al  Al16  1  0.78604012  0.45006481  0.39113879  1
  Al  Al17  1  0.46123873  0.40703798  0.89391402  1
  Al  Al18  1  0.54272883  0.53961716  0.63016271  1
  Al  Al19  1  0.11578311  0.74907849  0.31733270  1
  Al  Al20  1  0.21423966  0.87753598  0.07798194  1
  Al  Al21  1  0.77270717  0.78371922  0.82806816  1
  Al  Al22  1  0.89709650  0.85459067  0.54820174  1
  Al  Al23  1  0.44075130  0.76521040  0.29866034  1
  Al  Al24  1  0.55720780  0.87977851  0.08279853  1
  Al  Al25  1  0.21805501  0.86702214  0.55745534  1
  Al  Al26  1  0.78160920  0.75812743  0.30035358  1
  Al  Al27  1  0.89343327  0.87382505  0.07588475  1
  Gd  Gd28  1  0.86236262  0.21967974  0.62413694  1
  Gd  Gd29  1  0.17198475  0.22292447  0.54208601  1
  Gd  Gd30  1  0.79145055  0.09925226  0.34613528  1
  Gd  Gd31  1  0.53312237  0.20274460  0.63565336  1
  Gd  Gd32  1  0.89174882  0.54439417  0.08211014  1
  Gd  Gd33  1  0.10816475  0.76573471  0.79945557  1
  Gd  Gd34  1  0.45459096  0.74524093  0.85294124  1
  Gd  Gd35  1  0.57326180  0.82936234  0.55270740  1
  N  N36  1  0.22387426  0.20686827  0.32716649  1
  N  N37  1  0.10117565  0.09943052  0.12880095  1
  N  N38  1  0.89679839  0.19136886  0.87244178  1
  N  N39  1  0.77524246  0.07154562  0.56089881  1
  N  N40  1  0.52862459  0.22438716  0.31066323  1
  N  N41  1  0.44319794  0.10005897  0.08580752  1
  N  N42  1  0.21737468  0.20643819  0.88510007  1
  N  N43  1  0.11918920  0.05671669  0.65446959  1
  N  N44  1  0.92308254  0.22675504  0.40216353  1
  N  N45  1  0.77522496  0.10070905  0.09336938  1
  N  N46  1  0.55672876  0.19485843  0.85249698  1
  N  N47  1  0.42747264  0.08836282  0.53778607  1
  N  N48  1  0.21976521  0.53445372  0.36667839  1
  N  N49  1  0.14822246  0.41748405  0.12091363  1
  N  N50  1  0.88490269  0.53399942  0.84182036  1
  N  N51  1  0.75012792  0.50094750  0.56875739  1
  N  N52  1  0.56452779  0.53242470  0.31575251  1
  N  N53  1  0.45450249  0.42828473  0.07348608  1
  N  N54  1  0.23507573  0.51997855  0.88494411  1
  N  N55  1  0.11460196  0.44936266  0.64319351  1
  N  N56  1  0.89485036  0.53672104  0.31105207  1
  N  N57  1  0.75863608  0.41826989  0.05741457  1
  N  N58  1  0.58353737  0.47642354  0.80284686  1
  N  N59  1  0.44267025  0.44443820  0.55205904  1
  N  N60  1  0.22208538  0.87661279  0.36648130  1
  N  N61  1  0.11400645  0.75803604  0.13226043  1
  N  N62  1  0.87697575  0.87634881  0.89972515  1
  N  N63  1  0.80204381  0.77058263  0.65440176  1
  N  N64  1  0.55736548  0.86510763  0.33841314  1
  N  N65  1  0.44376765  0.76172663  0.11604422  1
  N  N66  1  0.20585943  0.89206104  0.90685007  1
  N  N67  1  0.11088341  0.75781786  0.58646806  1
  N  N68  1  0.90187937  0.83604434  0.37098219  1
  N  N69  1  0.76580766  0.79667404  0.12942705  1
  N  N70  1  0.57022329  0.88050714  0.89491708  1
  N  N71  1  0.41194400  0.75490932  0.64065399  1
