# generated using pymatgen
data_Gd2Al7N9
_symmetry_space_group_name_H-M   'P 1'
_cell_length_a   9.86610951
_cell_length_b   9.93972401
_cell_length_c   10.41975487
_cell_angle_alpha   89.53731349
_cell_angle_beta   89.91922850
_cell_angle_gamma   60.04360797
_symmetry_Int_Tables_number   1
_chemical_formula_structural   Gd2Al7N9
_chemical_formula_sum   'Gd8 Al28 N36'
_cell_volume   885.28460466
_cell_formula_units_Z   4
loop_
 _symmetry_equiv_pos_site_id
 _symmetry_equiv_pos_as_xyz
  1  'x, y, z'
loop_
 _atom_site_type_symbol
 _atom_site_label
 _atom_site_symmetry_multiplicity
 _atom_site_fract_x
 _atom_site_fract_y
 _atom_site_fract_z
 _atom_site_occupancy
  Al  Al0  1  0.11226064  0.09798824  0.38669640  1
  Al  Al1  1  0.22364988  0.20924837  0.15593939  1
  Al  Al2  1  0.78551975  0.08967849  0.92644105  1
  Al  Al3  1  0.43208927  0.11298823  0.38033409  1
  Al  Al4  1  0.54544953  0.21247014  0.12955914  1
  Al  Al5  1  0.10895926  0.10666825  0.93059627  1
  Al  Al6  1  0.88734314  0.21191783  0.15728288  1
  Al  Al7  1  0.44379630  0.08922306  0.92519855  1
  Al  Al8  1  0.10535810  0.43234931  0.39848702  1
  Al  Al9  1  0.22661726  0.53878386  0.15566974  1
  Al  Al10  1  0.77934015  0.40888383  0.90326438  1
  Al  Al11  1  0.88841706  0.54965239  0.64833982  1
  Al  Al12  1  0.43582756  0.43280638  0.39055226  1
  Al  Al13  1  0.55544640  0.52785050  0.15352474  1
  Al  Al14  1  0.12935391  0.41398470  0.90289303  1
  Al  Al15  1  0.22517254  0.53475095  0.63439030  1
  Al  Al16  1  0.77183745  0.44327036  0.40105114  1
  Al  Al17  1  0.45245445  0.41280626  0.91073011  1
  Al  Al18  1  0.54529985  0.53539752  0.64622666  1
  Al  Al19  1  0.11031819  0.74639343  0.39214569  1
  Al  Al20  1  0.21782835  0.87606965  0.10394252  1
  Al  Al21  1  0.76596210  0.78786333  0.89362923  1
  Al  Al22  1  0.89169198  0.86961322  0.64548183  1
  Al  Al23  1  0.44055559  0.75739875  0.32530506  1
  Al  Al24  1  0.55857000  0.88182812  0.15879956  1
  Al  Al25  1  0.22628021  0.85410834  0.57033589  1
  Al  Al26  1  0.79449179  0.74672567  0.40023427  1
  Al  Al27  1  0.89440937  0.86803079  0.15076942  1
  Gd  Gd28  1  0.88996230  0.21176838  0.65079249  1
  Gd  Gd29  1  0.22286538  0.20416286  0.65128269  1
  Gd  Gd30  1  0.76824742  0.09399474  0.37808319  1
  Gd  Gd31  1  0.55192961  0.21162163  0.67800343  1
  Gd  Gd32  1  0.88688284  0.54508247  0.13162693  1
  Gd  Gd33  1  0.11961561  0.74770768  0.88000241  1
  Gd  Gd34  1  0.46423112  0.74502167  0.88086971  1
  Gd  Gd35  1  0.55140957  0.86253893  0.60812688  1
  N  N36  1  0.21410930  0.21441869  0.34081854  1
  N  N37  1  0.10609461  0.10613077  0.11716340  1
  N  N38  1  0.90021289  0.19371686  0.87179308  1
  N  N39  1  0.78524284  0.07634079  0.59259556  1
  N  N40  1  0.51809083  0.23193234  0.31443296  1
  N  N41  1  0.43811838  0.08960036  0.10813705  1
  N  N42  1  0.22523390  0.19923292  0.87222031  1
  N  N43  1  0.12449183  0.06942465  0.56900956  1
  N  N44  1  0.89409353  0.22967708  0.34275022  1
  N  N45  1  0.78824369  0.08981416  0.11559982  1
  N  N46  1  0.56188369  0.19420078  0.90895575  1
  N  N47  1  0.44712501  0.11015925  0.55783879  1
  N  N48  1  0.21905302  0.53632657  0.33967871  1
  N  N49  1  0.14393432  0.41675450  0.08611889  1
  N  N50  1  0.88899462  0.54036793  0.84954755  1
  N  N51  1  0.75414144  0.47247044  0.58357819  1
  N  N52  1  0.55673011  0.53349174  0.33649202  1
  N  N53  1  0.43521088  0.44396832  0.09076514  1
  N  N54  1  0.25621004  0.48600284  0.81881106  1
  N  N55  1  0.09692773  0.44968786  0.58115159  1
  N  N56  1  0.88767974  0.53948195  0.34755921  1
  N  N57  1  0.75857714  0.41675209  0.08465359  1
  N  N58  1  0.58244161  0.47563952  0.82541973  1
  N  N59  1  0.43517518  0.44471587  0.57055990  1
  N  N60  1  0.22588290  0.86041783  0.37443780  1
  N  N61  1  0.11088704  0.75504558  0.10504828  1
  N  N62  1  0.86782085  0.89350692  0.83394064  1
  N  N63  1  0.80765217  0.75116613  0.58356015  1
  N  N64  1  0.56111035  0.86949897  0.34880673  1
  N  N65  1  0.44845621  0.76087456  0.13581948  1
  N  N66  1  0.21847917  0.89540260  0.92015790  1
  N  N67  1  0.10701468  0.75413207  0.59115785  1
  N  N68  1  0.90371954  0.83825008  0.33040039  1
  N  N69  1  0.75829606  0.80015312  0.07828587  1
  N  N70  1  0.55836545  0.90120360  0.83345987  1
  N  N71  1  0.41196283  0.74778807  0.65804797  1
