# generated using pymatgen
data_Gd2Al7N9
_symmetry_space_group_name_H-M   'P 1'
_cell_length_a   9.82723913
_cell_length_b   9.96330754
_cell_length_c   10.59353284
_cell_angle_alpha   89.39910240
_cell_angle_beta   89.40471927
_cell_angle_gamma   59.81228677
_symmetry_Int_Tables_number   1
_chemical_formula_structural   Gd2Al7N9
_chemical_formula_sum   'Gd8 Al28 N36'
_cell_volume   896.50027482
_cell_formula_units_Z   4
loop_
 _symmetry_equiv_pos_site_id
 _symmetry_equiv_pos_as_xyz
  1  'x, y, z'
loop_
 _atom_site_type_symbol
 _atom_site_label
 _atom_site_symmetry_multiplicity
 _atom_site_fract_x
 _atom_site_fract_y
 _atom_site_fract_z
 _atom_site_occupancy
  Al  Al0  1  0.11186712  0.10953181  0.30996263  1
  Al  Al1  1  0.22920185  0.20493948  0.06423704  1
  Al  Al2  1  0.76042621  0.09805867  0.89611078  1
  Al  Al3  1  0.43944736  0.09169925  0.30046617  1
  Al  Al4  1  0.54567713  0.21915806  0.13610668  1
  Al  Al5  1  0.11584667  0.08590631  0.82947155  1
  Al  Al6  1  0.89342224  0.20271100  0.05953257  1
  Al  Al7  1  0.44058280  0.08866709  0.82060564  1
  Al  Al8  1  0.12245559  0.42356409  0.29919296  1
  Al  Al9  1  0.23340599  0.53527774  0.06685935  1
  Al  Al10  1  0.77397924  0.41754153  0.88027683  1
  Al  Al11  1  0.88861598  0.55235043  0.65343546  1
  Al  Al12  1  0.44559418  0.43733523  0.36740184  1
  Al  Al13  1  0.56092256  0.52979719  0.13808916  1
  Al  Al14  1  0.12793517  0.41896997  0.82214976  1
  Al  Al15  1  0.21491398  0.54529320  0.54597534  1
  Al  Al16  1  0.78466879  0.45357141  0.39140462  1
  Al  Al17  1  0.45847926  0.40353405  0.87346397  1
  Al  Al18  1  0.54106326  0.54241112  0.62789930  1
  Al  Al19  1  0.11667198  0.74655478  0.31363072  1
  Al  Al20  1  0.21297305  0.88080089  0.08075859  1
  Al  Al21  1  0.77337907  0.78440288  0.82598239  1
  Al  Al22  1  0.90160284  0.84794046  0.54452483  1
  Al  Al23  1  0.44004128  0.77040715  0.30014562  1
  Al  Al24  1  0.55605542  0.88956828  0.06966454  1
  Al  Al25  1  0.21508628  0.86450539  0.55562192  1
  Al  Al26  1  0.77908332  0.76056540  0.30102257  1
  Al  Al27  1  0.89137577  0.87461732  0.07286585  1
  Gd  Gd28  1  0.86130940  0.21993056  0.61939106  1
  Gd  Gd29  1  0.19261972  0.20688783  0.56379250  1
  Gd  Gd30  1  0.80471648  0.09172188  0.33653676  1
  Gd  Gd31  1  0.54273154  0.19795365  0.59188106  1
  Gd  Gd32  1  0.89104844  0.54348672  0.08554448  1
  Gd  Gd33  1  0.10833722  0.76588032  0.80051789  1
  Gd  Gd34  1  0.45211891  0.74611218  0.85688547  1
  Gd  Gd35  1  0.56896994  0.83176238  0.56282411  1
  N  N36  1  0.22900093  0.20598110  0.35082784  1
  N  N37  1  0.10332608  0.10442572  0.12769341  1
  N  N38  1  0.89282998  0.19537573  0.87107688  1
  N  N39  1  0.79083963  0.06145677  0.55290645  1
  N  N40  1  0.53614551  0.21856172  0.32442740  1
  N  N41  1  0.44195634  0.09860014  0.11824920  1
  N  N42  1  0.21870836  0.20437301  0.87858541  1
  N  N43  1  0.11122299  0.05228508  0.65370186  1
  N  N44  1  0.91763449  0.23246414  0.39674341  1
  N  N45  1  0.77301202  0.10284357  0.09086726  1
  N  N46  1  0.55697470  0.19583703  0.82836676  1
  N  N47  1  0.42625362  0.06716401  0.64452073  1
  N  N48  1  0.22066241  0.53367863  0.36205984  1
  N  N49  1  0.14999479  0.41050262  0.11996526  1
  N  N50  1  0.88540784  0.53463150  0.84324120  1
  N  N51  1  0.74793659  0.50248533  0.57028460  1
  N  N52  1  0.56288749  0.54120092  0.31848109  1
  N  N53  1  0.45217165  0.42950385  0.08773225  1
  N  N54  1  0.23649864  0.51780038  0.88399475  1
  N  N55  1  0.11329295  0.44901532  0.64082204  1
  N  N56  1  0.89412733  0.53989191  0.31296007  1
  N  N57  1  0.75764115  0.41933973  0.05965231  1
  N  N58  1  0.58102924  0.48252121  0.80363917  1
  N  N59  1  0.43877306  0.45126092  0.54982384  1
  N  N60  1  0.21924261  0.88004595  0.36409897  1
  N  N61  1  0.11323578  0.75838934  0.12812335  1
  N  N62  1  0.87357111  0.88161368  0.89499976  1
  N  N63  1  0.80667289  0.76542585  0.65070934  1
  N  N64  1  0.55312470  0.87334665  0.34773493  1
  N  N65  1  0.44460108  0.76647248  0.11401531  1
  N  N66  1  0.20324586  0.89447363  0.90707751  1
  N  N67  1  0.11260769  0.75339839  0.58549804  1
  N  N68  1  0.90548690  0.83227934  0.36570286  1
  N  N69  1  0.76270552  0.79845334  0.12610721  1
  N  N70  1  0.56693650  0.88631207  0.88844707  1
  N  N71  1  0.40755782  0.75407087  0.64064756  1
