# generated using pymatgen
data_Gd2Al7N9
_symmetry_space_group_name_H-M   'P 1'
_cell_length_a   9.85015215
_cell_length_b   9.89287888
_cell_length_c   10.57282074
_cell_angle_alpha   88.94392814
_cell_angle_beta   89.57641950
_cell_angle_gamma   60.09771461
_symmetry_Int_Tables_number   1
_chemical_formula_structural   Gd2Al7N9
_chemical_formula_sum   'Gd8 Al28 N36'
_cell_volume   892.97480015
_cell_formula_units_Z   4
loop_
 _symmetry_equiv_pos_site_id
 _symmetry_equiv_pos_as_xyz
  1  'x, y, z'
loop_
 _atom_site_type_symbol
 _atom_site_label
 _atom_site_symmetry_multiplicity
 _atom_site_fract_x
 _atom_site_fract_y
 _atom_site_fract_z
 _atom_site_occupancy
  Al  Al0  1  0.11418898  0.10017032  0.29366543  1
  Al  Al1  1  0.22764437  0.20197141  0.05201109  1
  Al  Al2  1  0.76642092  0.10158870  0.88093923  1
  Al  Al3  1  0.44003522  0.09328719  0.27974265  1
  Al  Al4  1  0.54085462  0.21730772  0.05719437  1
  Al  Al5  1  0.11324712  0.09008811  0.81794766  1
  Al  Al6  1  0.89678093  0.20163438  0.04883205  1
  Al  Al7  1  0.44513431  0.09727912  0.81801714  1
  Al  Al8  1  0.12510492  0.41803021  0.29232009  1
  Al  Al9  1  0.23307149  0.53318244  0.05396938  1
  Al  Al10  1  0.77015285  0.42788704  0.86717184  1
  Al  Al11  1  0.88925000  0.54762857  0.64556374  1
  Al  Al12  1  0.44163399  0.42883203  0.29269867  1
  Al  Al13  1  0.54751694  0.53722876  0.05122281  1
  Al  Al14  1  0.12661706  0.42033035  0.81281707  1
  Al  Al15  1  0.21912459  0.54491431  0.54625953  1
  Al  Al16  1  0.78759337  0.43800564  0.36162373  1
  Al  Al17  1  0.44152087  0.42962132  0.80674627  1
  Al  Al18  1  0.53996646  0.55288537  0.54527172  1
  Al  Al19  1  0.11776881  0.74424560  0.30267313  1
  Al  Al20  1  0.21993723  0.87257289  0.06582128  1
  Al  Al21  1  0.77338060  0.78272965  0.81441788  1
  Al  Al22  1  0.90392667  0.84816332  0.53235659  1
  Al  Al23  1  0.44536553  0.75771304  0.29239589  1
  Al  Al24  1  0.55518899  0.87998489  0.05708531  1
  Al  Al25  1  0.21764143  0.86545395  0.53129538  1
  Al  Al26  1  0.78077678  0.75630842  0.28580565  1
  Al  Al27  1  0.89205405  0.87258068  0.05724777  1
  Gd  Gd28  1  0.87403366  0.20803282  0.59549143  1
  Gd  Gd29  1  0.20479250  0.20306164  0.55634590  1
  Gd  Gd30  1  0.79043903  0.08966110  0.31143314  1
  Gd  Gd31  1  0.53019258  0.21784030  0.54896602  1
  Gd  Gd32  1  0.89610407  0.53979586  0.07263513  1
  Gd  Gd33  1  0.10295729  0.76741104  0.78916245  1
  Gd  Gd34  1  0.43728007  0.77343411  0.79904428  1
  Gd  Gd35  1  0.58088246  0.85388833  0.54035382  1
  N  N36  1  0.23080233  0.19706759  0.33991300  1
  N  N37  1  0.10802162  0.09851533  0.11071435  1
  N  N38  1  0.88833130  0.20432040  0.85183675  1
  N  N39  1  0.77895445  0.06206531  0.54365122  1
  N  N40  1  0.52947765  0.21376631  0.33160541  1
  N  N41  1  0.44224332  0.09533750  0.09894937  1
  N  N42  1  0.21837517  0.20510611  0.86649937  1
  N  N43  1  0.12510464  0.04499562  0.64111841  1
  N  N44  1  0.91490602  0.22069531  0.37116186  1
  N  N45  1  0.77687846  0.10027728  0.07448043  1
  N  N46  1  0.54614732  0.21470652  0.86584573  1
  N  N47  1  0.43934664  0.07874750  0.64142265  1
  N  N48  1  0.23119821  0.52624372  0.36057388  1
  N  N49  1  0.15322236  0.40591775  0.11299138  1
  N  N50  1  0.88813062  0.53802512  0.83667752  1
  N  N51  1  0.75524716  0.48023928  0.58319427  1
  N  N52  1  0.55570580  0.53353901  0.35671980  1
  N  N53  1  0.44430151  0.43187692  0.11208370  1
  N  N54  1  0.23340496  0.51952273  0.87491159  1
  N  N55  1  0.11197604  0.44773460  0.63130836  1
  N  N56  1  0.89586399  0.53527224  0.30466388  1
  N  N57  1  0.76673747  0.41347526  0.05843716  1
  N  N58  1  0.55112982  0.52533843  0.86883799  1
  N  N59  1  0.42677775  0.46220810  0.62517159  1
  N  N60  1  0.21787705  0.87490381  0.34410301  1
  N  N61  1  0.11268125  0.75425917  0.11473086  1
  N  N62  1  0.87064353  0.88582927  0.87902375  1
  N  N63  1  0.81470685  0.75940718  0.63948638  1
  N  N64  1  0.55622918  0.87056560  0.32655436  1
  N  N65  1  0.44711441  0.75681391  0.10679496  1
  N  N66  1  0.20482897  0.89336010  0.89146710  1
  N  N67  1  0.11432702  0.75722710  0.57255328  1
  N  N68  1  0.90648566  0.82866503  0.35364412  1
  N  N69  1  0.76393217  0.79553015  0.11098092  1
  N  N70  1  0.56733717  0.88575418  0.87584010  1
  N  N71  1  0.42432243  0.76070796  0.58296354  1
