# generated using pymatgen
data_Gd2Al7N9
_symmetry_space_group_name_H-M   'P 1'
_cell_length_a   9.81666182
_cell_length_b   9.91330575
_cell_length_c   10.64469408
_cell_angle_alpha   89.13349106
_cell_angle_beta   89.65477948
_cell_angle_gamma   59.93100602
_symmetry_Int_Tables_number   1
_chemical_formula_structural   Gd2Al7N9
_chemical_formula_sum   'Gd8 Al28 N36'
_cell_volume   896.38261968
_cell_formula_units_Z   4
loop_
 _symmetry_equiv_pos_site_id
 _symmetry_equiv_pos_as_xyz
  1  'x, y, z'
loop_
 _atom_site_type_symbol
 _atom_site_label
 _atom_site_symmetry_multiplicity
 _atom_site_fract_x
 _atom_site_fract_y
 _atom_site_fract_z
 _atom_site_occupancy
  Al  Al0  1  0.11495708  0.10601565  0.31217126  1
  Al  Al1  1  0.22782742  0.20403003  0.06416487  1
  Al  Al2  1  0.76923161  0.09626805  0.89690784  1
  Al  Al3  1  0.44319443  0.09242446  0.29192874  1
  Al  Al4  1  0.54312468  0.21644911  0.07327778  1
  Al  Al5  1  0.11538405  0.08700956  0.83005500  1
  Al  Al6  1  0.89857143  0.20019455  0.05995161  1
  Al  Al7  1  0.44344769  0.09534241  0.82722617  1
  Al  Al8  1  0.12578706  0.42027845  0.30354258  1
  Al  Al9  1  0.23586390  0.53455528  0.06330873  1
  Al  Al10  1  0.77539621  0.41964523  0.88330271  1
  Al  Al11  1  0.88434756  0.55151210  0.65306512  1
  Al  Al12  1  0.43942625  0.42856430  0.30118671  1
  Al  Al13  1  0.56555859  0.53205145  0.13486520  1
  Al  Al14  1  0.12354707  0.42150879  0.82273034  1
  Al  Al15  1  0.21570946  0.54332646  0.55594099  1
  Al  Al16  1  0.78381217  0.45063032  0.39096381  1
  Al  Al17  1  0.44455791  0.41202396  0.81401098  1
  Al  Al18  1  0.54333123  0.54476062  0.63707014  1
  Al  Al19  1  0.11987625  0.74526830  0.31934862  1
  Al  Al20  1  0.21489896  0.87840447  0.08213655  1
  Al  Al21  1  0.77524065  0.78168178  0.82541573  1
  Al  Al22  1  0.89673608  0.85263516  0.54405213  1
  Al  Al23  1  0.44425644  0.76656408  0.30185474  1
  Al  Al24  1  0.55895797  0.88588877  0.06874524  1
  Al  Al25  1  0.21627073  0.86363440  0.55420721  1
  Al  Al26  1  0.78102008  0.75933317  0.30200248  1
  Al  Al27  1  0.89588793  0.87123304  0.07225877  1
  Gd  Gd28  1  0.86050628  0.21598165  0.61611018  1
  Gd  Gd29  1  0.19325172  0.20542314  0.56818345  1
  Gd  Gd30  1  0.79883318  0.09438288  0.32585812  1
  Gd  Gd31  1  0.52212336  0.21099511  0.54772335  1
  Gd  Gd32  1  0.89562311  0.54166280  0.08823961  1
  Gd  Gd33  1  0.10818567  0.76781461  0.79792410  1
  Gd  Gd34  1  0.44892005  0.75321075  0.85524764  1
  Gd  Gd35  1  0.56580509  0.84410309  0.56423393  1
  N  N36  1  0.23485295  0.20108131  0.35458426  1
  N  N37  1  0.10671665  0.10234722  0.12979895  1
  N  N38  1  0.89402672  0.19734963  0.87009885  1
  N  N39  1  0.77481192  0.06742619  0.55485751  1
  N  N40  1  0.53630407  0.21335797  0.33200519  1
  N  N41  1  0.44193614  0.09629389  0.11335533  1
  N  N42  1  0.21685551  0.20597019  0.87970692  1
  N  N43  1  0.11250393  0.04899392  0.65525434  1
  N  N44  1  0.91884721  0.22748351  0.39592274  1
  N  N45  1  0.78024148  0.09872682  0.08844165  1
  N  N46  1  0.54792737  0.20672489  0.88286779  1
  N  N47  1  0.43112933  0.07972800  0.65242111  1
  N  N48  1  0.23222486  0.52660875  0.37203602  1
  N  N49  1  0.15417249  0.40853302  0.12407633  1
  N  N50  1  0.88511295  0.53665644  0.84494552  1
  N  N51  1  0.74637072  0.49703991  0.57008615  1
  N  N52  1  0.56452414  0.53642849  0.31787976  1
  N  N53  1  0.44560798  0.43263840  0.11953327  1
  N  N54  1  0.23547895  0.51918095  0.88456655  1
  N  N55  1  0.10633276  0.44892044  0.64168188  1
  N  N56  1  0.89712624  0.53706015  0.31543664  1
  N  N57  1  0.76231219  0.41636684  0.06182628  1
  N  N58  1  0.58206458  0.49316108  0.81316394  1
  N  N59  1  0.42019856  0.44656408  0.63214163  1
  N  N60  1  0.22356342  0.87680443  0.36460594  1
  N  N61  1  0.11617548  0.75503121  0.13166506  1
  N  N62  1  0.87620107  0.87940586  0.89388768  1
  N  N63  1  0.80568168  0.76441277  0.65013512  1
  N  N64  1  0.55598014  0.87247329  0.34727487  1
  N  N65  1  0.44771140  0.76489920  0.11379452  1
  N  N66  1  0.20029550  0.89554795  0.90951546  1
  N  N67  1  0.10963707  0.75593380  0.58266744  1
  N  N68  1  0.90640636  0.83381599  0.36607872  1
  N  N69  1  0.76526009  0.79706540  0.12704179  1
  N  N70  1  0.56988882  0.88703092  0.88860836  1
  N  N71  1  0.40999220  0.75702684  0.63684091  1
