# generated using pymatgen
data_Gd2Al7N9
_symmetry_space_group_name_H-M   'P 1'
_cell_length_a   9.84565524
_cell_length_b   9.85605136
_cell_length_c   10.55582961
_cell_angle_alpha   89.31769267
_cell_angle_beta   89.64703101
_cell_angle_gamma   59.92553146
_symmetry_Int_Tables_number   1
_chemical_formula_structural   Gd2Al7N9
_chemical_formula_sum   'Gd8 Al28 N36'
_cell_volume   886.36663111
_cell_formula_units_Z   4
loop_
 _symmetry_equiv_pos_site_id
 _symmetry_equiv_pos_as_xyz
  1  'x, y, z'
loop_
 _atom_site_type_symbol
 _atom_site_label
 _atom_site_symmetry_multiplicity
 _atom_site_fract_x
 _atom_site_fract_y
 _atom_site_fract_z
 _atom_site_occupancy
  Al  Al0  1  0.11226962  0.09816767  0.28797462  1
  Al  Al1  1  0.22629307  0.20263016  0.05228094  1
  Al  Al2  1  0.77542022  0.09216491  0.81626519  1
  Al  Al3  1  0.43744875  0.09652752  0.28024949  1
  Al  Al4  1  0.55071879  0.21102330  0.04270215  1
  Al  Al5  1  0.11375278  0.09329216  0.81494066  1
  Al  Al6  1  0.88611977  0.20494932  0.04159241  1
  Al  Al7  1  0.44573265  0.09565849  0.81793303  1
  Al  Al8  1  0.11530877  0.42256663  0.29006675  1
  Al  Al9  1  0.23069155  0.53322460  0.05784760  1
  Al  Al10  1  0.76686886  0.42979903  0.81183183  1
  Al  Al11  1  0.89312405  0.54822672  0.64552034  1
  Al  Al12  1  0.43765073  0.42625269  0.29706654  1
  Al  Al13  1  0.55243762  0.52836323  0.05859473  1
  Al  Al14  1  0.12896945  0.41973046  0.81501248  1
  Al  Al15  1  0.21895559  0.54727844  0.54495676  1
  Al  Al16  1  0.77961429  0.42555513  0.29633374  1
  Al  Al17  1  0.44381262  0.42841375  0.81087208  1
  Al  Al18  1  0.54310632  0.55003546  0.54667597  1
  Al  Al19  1  0.11086502  0.75138225  0.30660265  1
  Al  Al20  1  0.21729734  0.87404691  0.06289031  1
  Al  Al21  1  0.77385091  0.78078413  0.81411315  1
  Al  Al22  1  0.90078302  0.85871754  0.54737675  1
  Al  Al23  1  0.44310232  0.75778761  0.29123029  1
  Al  Al24  1  0.55514564  0.88062688  0.05986917  1
  Al  Al25  1  0.22153552  0.86751713  0.53214344  1
  Al  Al26  1  0.78031114  0.75658218  0.28826393  1
  Al  Al27  1  0.88763022  0.87807804  0.05010416  1
  Gd  Gd28  1  0.88887739  0.21282978  0.57221803  1
  Gd  Gd29  1  0.21706043  0.20750329  0.55079542  1
  Gd  Gd30  1  0.77935792  0.09326208  0.29065419  1
  Gd  Gd31  1  0.54995284  0.21362816  0.56644983  1
  Gd  Gd32  1  0.88702604  0.53900976  0.06401347  1
  Gd  Gd33  1  0.10818441  0.76178296  0.78997243  1
  Gd  Gd34  1  0.44463899  0.76355155  0.80439807  1
  Gd  Gd35  1  0.57792752  0.85631927  0.53777792  1
  N  N36  1  0.22485308  0.19977851  0.33382375  1
  N  N37  1  0.10514717  0.09931242  0.10555871  1
  N  N38  1  0.88859200  0.20999772  0.85287167  1
  N  N39  1  0.79625074  0.05973836  0.62946841  1
  N  N40  1  0.52735780  0.21187573  0.35031589  1
  N  N41  1  0.44343871  0.09885438  0.09823898  1
  N  N42  1  0.22166254  0.20448765  0.86608229  1
  N  N43  1  0.13198278  0.05531837  0.63483955  1
  N  N44  1  0.90710171  0.21555162  0.35898223  1
  N  N45  1  0.77509234  0.09883052  0.07843095  1
  N  N46  1  0.55244579  0.21024874  0.85590889  1
  N  N47  1  0.44577658  0.08082747  0.64035395  1
  N  N48  1  0.22370912  0.53017590  0.35963969  1
  N  N49  1  0.14237557  0.41125666  0.11049401  1
  N  N50  1  0.89108049  0.53813976  0.83738588  1
  N  N51  1  0.74754695  0.47441753  0.63096052  1
  N  N52  1  0.55577985  0.53119672  0.35925290  1
  N  N53  1  0.44370500  0.42487757  0.11471549  1
  N  N54  1  0.23740832  0.51706407  0.87853980  1
  N  N55  1  0.11322658  0.45101406  0.63268474  1
  N  N56  1  0.88998078  0.53620335  0.30884125  1
  N  N57  1  0.76204590  0.40599178  0.11544525  1
  N  N58  1  0.56399775  0.51334179  0.87917947  1
  N  N59  1  0.42368684  0.46592958  0.62804932  1
  N  N60  1  0.21804231  0.87531692  0.34513453  1
  N  N61  1  0.10815935  0.75861783  0.11635952  1
  N  N62  1  0.87302467  0.88319348  0.87492014  1
  N  N63  1  0.80984473  0.75939479  0.63709621  1
  N  N64  1  0.55239284  0.87230282  0.32397203  1
  N  N65  1  0.44633203  0.75515406  0.10569418  1
  N  N66  1  0.20658327  0.89330489  0.88671625  1
  N  N67  1  0.11544368  0.76134727  0.57270553  1
  N  N68  1  0.89335086  0.84445250  0.36693291  1
  N  N69  1  0.76636969  0.79465734  0.11237264  1
  N  N70  1  0.56784677  0.88435367  0.87698744  1
  N  N71  1  0.42784482  0.75916921  0.58621927  1
