# generated using pymatgen
data_Gd2Al7N9
_symmetry_space_group_name_H-M   'P 1'
_cell_length_a   9.87975816
_cell_length_b   9.94569137
_cell_length_c   10.40623634
_cell_angle_alpha   89.33604132
_cell_angle_beta   89.85034032
_cell_angle_gamma   59.96040699
_symmetry_Int_Tables_number   1
_chemical_formula_structural   Gd2Al7N9
_chemical_formula_sum   'Gd8 Al28 N36'
_cell_volume   885.11580181
_cell_formula_units_Z   4
loop_
 _symmetry_equiv_pos_site_id
 _symmetry_equiv_pos_as_xyz
  1  'x, y, z'
loop_
 _atom_site_type_symbol
 _atom_site_label
 _atom_site_symmetry_multiplicity
 _atom_site_fract_x
 _atom_site_fract_y
 _atom_site_fract_z
 _atom_site_occupancy
  Al  Al0  1  0.11181992  0.09884663  0.38655008  1
  Al  Al1  1  0.22319078  0.20972955  0.15557766  1
  Al  Al2  1  0.78639322  0.08937782  0.92794882  1
  Al  Al3  1  0.43137004  0.11452767  0.37881473  1
  Al  Al4  1  0.54487171  0.21327985  0.12854575  1
  Al  Al5  1  0.10859866  0.10623471  0.93052132  1
  Al  Al6  1  0.88681004  0.21261909  0.15781088  1
  Al  Al7  1  0.44470374  0.08843743  0.92563898  1
  Al  Al8  1  0.10419502  0.43305550  0.39802126  1
  Al  Al9  1  0.22649425  0.53877909  0.15717486  1
  Al  Al10  1  0.77818634  0.40817702  0.90357364  1
  Al  Al11  1  0.88997021  0.54756430  0.65027195  1
  Al  Al12  1  0.43527578  0.43300943  0.39116575  1
  Al  Al13  1  0.55409436  0.52880727  0.15304215  1
  Al  Al14  1  0.13155324  0.41158921  0.90244232  1
  Al  Al15  1  0.22545704  0.53398214  0.63432728  1
  Al  Al16  1  0.77144005  0.44460587  0.40000419  1
  Al  Al17  1  0.45232522  0.41310629  0.91012619  1
  Al  Al18  1  0.54549200  0.53448677  0.64572756  1
  Al  Al19  1  0.10962305  0.74737185  0.39219525  1
  Al  Al20  1  0.21709945  0.87692926  0.10561622  1
  Al  Al21  1  0.76628621  0.78721808  0.88738850  1
  Al  Al22  1  0.89494040  0.86976850  0.64690431  1
  Al  Al23  1  0.43969348  0.75740712  0.32469281  1
  Al  Al24  1  0.55874074  0.88107176  0.15763683  1
  Al  Al25  1  0.22638391  0.85406591  0.56985639  1
  Al  Al26  1  0.79394961  0.74700756  0.39891503  1
  Al  Al27  1  0.89251299  0.86900084  0.15217605  1
  Gd  Gd28  1  0.89070953  0.21278763  0.65071133  1
  Gd  Gd29  1  0.22616597  0.20141766  0.65054275  1
  Gd  Gd30  1  0.76655749  0.09638690  0.37886823  1
  Gd  Gd31  1  0.55394213  0.20790505  0.67892552  1
  Gd  Gd32  1  0.88651872  0.54500636  0.12699784  1
  Gd  Gd33  1  0.11964500  0.74473555  0.88590490  1
  Gd  Gd34  1  0.46213871  0.74703266  0.87811435  1
  Gd  Gd35  1  0.55272986  0.85964243  0.60295018  1
  N  N36  1  0.21340255  0.21528422  0.34052229  1
  N  N37  1  0.10544612  0.10715590  0.11719248  1
  N  N38  1  0.89987589  0.19373683  0.87211213  1
  N  N39  1  0.78719618  0.07673716  0.59348883  1
  N  N40  1  0.51686514  0.23355386  0.31324868  1
  N  N41  1  0.43777749  0.08960826  0.10871822  1
  N  N42  1  0.22624162  0.19747768  0.87213155  1
  N  N43  1  0.12520794  0.06930891  0.56909245  1
  N  N44  1  0.89375032  0.23074072  0.34317249  1
  N  N45  1  0.78797552  0.09055788  0.11695745  1
  N  N46  1  0.56235477  0.19414514  0.91088786  1
  N  N47  1  0.45008697  0.10843201  0.55600448  1
  N  N48  1  0.21841812  0.53681039  0.34083513  1
  N  N49  1  0.14491470  0.41712664  0.08562308  1
  N  N50  1  0.89044517  0.53723886  0.85067925  1
  N  N51  1  0.75383078  0.47394927  0.58279274  1
  N  N52  1  0.55576653  0.53372867  0.33642023  1
  N  N53  1  0.43354316  0.44606245  0.08995682  1
  N  N54  1  0.25648573  0.48504650  0.81834568  1
  N  N55  1  0.09740715  0.44800002  0.58110586  1
  N  N56  1  0.88711522  0.54081238  0.34493739  1
  N  N57  1  0.75700267  0.41694367  0.08475980  1
  N  N58  1  0.58194371  0.47646784  0.82540828  1
  N  N59  1  0.43640651  0.44244781  0.57138793  1
  N  N60  1  0.22507439  0.86170515  0.37338214  1
  N  N61  1  0.10987258  0.75634742  0.10925817  1
  N  N62  1  0.86997203  0.89385703  0.83515690  1
  N  N63  1  0.80881566  0.75098455  0.59077642  1
  N  N64  1  0.56133710  0.86836068  0.34856363  1
  N  N65  1  0.44774789  0.76166771  0.13546952  1
  N  N66  1  0.21661012  0.89467823  0.92082457  1
  N  N67  1  0.10844267  0.75329860  0.58975050  1
  N  N68  1  0.90188148  0.84065739  0.33256085  1
  N  N69  1  0.75818652  0.80057799  0.07660456  1
  N  N70  1  0.55735602  0.90283222  0.83085753  1
  N  N71  1  0.41246497  0.74712902  0.65656938  1
