# generated using pymatgen
data_Gd2Al7N9
_symmetry_space_group_name_H-M   'P 1'
_cell_length_a   9.79061998
_cell_length_b   9.90632600
_cell_length_c   10.69711705
_cell_angle_alpha   89.46100200
_cell_angle_beta   89.21504989
_cell_angle_gamma   59.93879691
_symmetry_Int_Tables_number   1
_chemical_formula_structural   Gd2Al7N9
_chemical_formula_sum   'Gd8 Al28 N36'
_cell_volume   897.86157165
_cell_formula_units_Z   4
loop_
 _symmetry_equiv_pos_site_id
 _symmetry_equiv_pos_as_xyz
  1  'x, y, z'
loop_
 _atom_site_type_symbol
 _atom_site_label
 _atom_site_symmetry_multiplicity
 _atom_site_fract_x
 _atom_site_fract_y
 _atom_site_fract_z
 _atom_site_occupancy
  Al  Al0  1  0.10807015  0.09682013  0.33131947  1
  Al  Al1  1  0.23086069  0.20181014  0.14973328  1
  Al  Al2  1  0.76797832  0.09352293  0.92717735  1
  Al  Al3  1  0.44101998  0.10041645  0.38313682  1
  Al  Al4  1  0.54532103  0.21394603  0.14652294  1
  Al  Al5  1  0.12772818  0.08509699  0.84672278  1
  Al  Al6  1  0.89908424  0.20042898  0.08165814  1
  Al  Al7  1  0.43886646  0.09420813  0.92228721  1
  Al  Al8  1  0.11554901  0.43428407  0.32004775  1
  Al  Al9  1  0.23419450  0.54257585  0.10287641  1
  Al  Al10  1  0.77830295  0.41219399  0.89950387  1
  Al  Al11  1  0.88659064  0.54944943  0.66963621  1
  Al  Al12  1  0.44704034  0.42864741  0.39447909  1
  Al  Al13  1  0.56812432  0.52455204  0.15998594  1
  Al  Al14  1  0.13571802  0.41459965  0.83098848  1
  Al  Al15  1  0.21354822  0.54421645  0.56622014  1
  Al  Al16  1  0.78545818  0.44786422  0.41495443  1
  Al  Al17  1  0.45734011  0.41167780  0.91708416  1
  Al  Al18  1  0.53975223  0.53680680  0.65287007  1
  Al  Al19  1  0.11539949  0.75418598  0.34182843  1
  Al  Al20  1  0.21694211  0.87893265  0.09983365  1
  Al  Al21  1  0.77174639  0.79134588  0.83292258  1
  Al  Al22  1  0.89693021  0.85538139  0.56712343  1
  Al  Al23  1  0.43959504  0.75813233  0.32885093  1
  Al  Al24  1  0.55142234  0.88432825  0.16249658  1
  Al  Al25  1  0.21795517  0.86251921  0.58004325  1
  Al  Al26  1  0.78989801  0.75223837  0.32573367  1
  Al  Al27  1  0.89322292  0.87443731  0.09791010  1
  Gd  Gd28  1  0.85689874  0.21678128  0.64988737  1
  Gd  Gd29  1  0.16794805  0.21689749  0.56445667  1
  Gd  Gd30  1  0.78395043  0.10315964  0.36861026  1
  Gd  Gd31  1  0.52308324  0.20404978  0.66841966  1
  Gd  Gd32  1  0.89975255  0.54705076  0.08680089  1
  Gd  Gd33  1  0.11376445  0.76784453  0.82046312  1
  Gd  Gd34  1  0.46580184  0.74455711  0.88163188  1
  Gd  Gd35  1  0.56180995  0.84247382  0.59633960  1
  N  N36  1  0.22362000  0.20463362  0.33921501  1
  N  N37  1  0.10369617  0.09719733  0.15294124  1
  N  N38  1  0.90017457  0.18902369  0.89421489  1
  N  N39  1  0.76534711  0.07189708  0.58660912  1
  N  N40  1  0.52442706  0.22543455  0.32440452  1
  N  N41  1  0.44515186  0.08971075  0.10380600  1
  N  N42  1  0.22348951  0.20603602  0.87565065  1
  N  N43  1  0.11394311  0.05035014  0.67322145  1
  N  N44  1  0.92217342  0.22417376  0.42416960  1
  N  N45  1  0.77947563  0.10005069  0.11632469  1
  N  N46  1  0.55545364  0.19781750  0.88919838  1
  N  N47  1  0.42193614  0.09526816  0.55515311  1
  N  N48  1  0.22141126  0.53761538  0.38129543  1
  N  N49  1  0.15104200  0.41698700  0.14562055  1
  N  N50  1  0.88258321  0.53451660  0.85671323  1
  N  N51  1  0.74677133  0.49516349  0.59064795  1
  N  N52  1  0.56660560  0.52959587  0.33962060  1
  N  N53  1  0.45539257  0.43263561  0.09770657  1
  N  N54  1  0.23651764  0.52047173  0.89608862  1
  N  N55  1  0.11115964  0.44649467  0.65128186  1
  N  N56  1  0.89461203  0.53606500  0.33858936  1
  N  N57  1  0.76519487  0.41975570  0.07944273  1
  N  N58  1  0.58484318  0.47376019  0.82513093  1
  N  N59  1  0.44172897  0.43890852  0.57285492  1
  N  N60  1  0.22342763  0.87573221  0.39108533  1
  N  N61  1  0.11430494  0.76215669  0.15539664  1
  N  N62  1  0.87539546  0.87521974  0.91958687  1
  N  N63  1  0.81216542  0.75942687  0.66168026  1
  N  N64  1  0.55471858  0.86934319  0.35092274  1
  N  N65  1  0.44594957  0.76121189  0.14263047  1
  N  N66  1  0.21415320  0.89287843  0.92849216  1
  N  N67  1  0.11061796  0.75489599  0.60418383  1
  N  N68  1  0.90156170  0.84162626  0.38911244  1
  N  N69  1  0.76797342  0.79381359  0.15174454  1
  N  N70  1  0.55561212  0.90259757  0.83970866  1
  N  N71  1  0.40772403  0.74911858  0.66570515  1
