# generated using pymatgen
data_Gd2Al7N9
_symmetry_space_group_name_H-M   'P 1'
_cell_length_a   9.88088828
_cell_length_b   9.89900140
_cell_length_c   10.57048006
_cell_angle_alpha   89.60014661
_cell_angle_beta   90.19583760
_cell_angle_gamma   60.18838562
_symmetry_Int_Tables_number   1
_chemical_formula_structural   Gd2Al7N9
_chemical_formula_sum   'Gd8 Al28 N36'
_cell_volume   897.03575280
_cell_formula_units_Z   4
loop_
 _symmetry_equiv_pos_site_id
 _symmetry_equiv_pos_as_xyz
  1  'x, y, z'
loop_
 _atom_site_type_symbol
 _atom_site_label
 _atom_site_symmetry_multiplicity
 _atom_site_fract_x
 _atom_site_fract_y
 _atom_site_fract_z
 _atom_site_occupancy
  Al  Al0  1  0.11115545  0.10034073  0.33629630  1
  Al  Al1  1  0.22464368  0.21285219  0.15422239  1
  Al  Al2  1  0.77219926  0.10413099  0.93590345  1
  Al  Al3  1  0.42964541  0.11214421  0.38565517  1
  Al  Al4  1  0.53912814  0.21908243  0.14014544  1
  Al  Al5  1  0.11107653  0.09579197  0.88448234  1
  Al  Al6  1  0.87999437  0.21952107  0.15858449  1
  Al  Al7  1  0.44702604  0.08980668  0.92499698  1
  Al  Al8  1  0.10068979  0.43983099  0.39679609  1
  Al  Al9  1  0.22894417  0.53607559  0.15483306  1
  Al  Al10  1  0.77816661  0.40695401  0.90317771  1
  Al  Al11  1  0.90074669  0.53939257  0.66036293  1
  Al  Al12  1  0.43499552  0.43340564  0.39376427  1
  Al  Al13  1  0.55078447  0.53265853  0.15380471  1
  Al  Al14  1  0.13236419  0.41114890  0.90352565  1
  Al  Al15  1  0.23129436  0.52908199  0.63407281  1
  Al  Al16  1  0.77193338  0.44980155  0.39953873  1
  Al  Al17  1  0.44805635  0.41712531  0.90729509  1
  Al  Al18  1  0.54921591  0.53293443  0.64595063  1
  Al  Al19  1  0.11246031  0.75552840  0.33620427  1
  Al  Al20  1  0.21131952  0.88153668  0.10034247  1
  Al  Al21  1  0.77316232  0.78924486  0.83663986  1
  Al  Al22  1  0.91538345  0.84260970  0.57065078  1
  Al  Al23  1  0.43280873  0.76084586  0.32709543  1
  Al  Al24  1  0.54334821  0.88923060  0.16287741  1
  Al  Al25  1  0.22714190  0.85571487  0.57281328  1
  Al  Al26  1  0.78482373  0.75517282  0.32709355  1
  Al  Al27  1  0.88577701  0.87856549  0.10013347  1
  Gd  Gd28  1  0.88332951  0.21347039  0.64652500  1
  Gd  Gd29  1  0.23205428  0.19919887  0.65012313  1
  Gd  Gd30  1  0.76854689  0.09378851  0.37231095  1
  Gd  Gd31  1  0.56472921  0.19287143  0.67215388  1
  Gd  Gd32  1  0.88580733  0.54614092  0.11080816  1
  Gd  Gd33  1  0.10080012  0.76927560  0.83177799  1
  Gd  Gd34  1  0.45735810  0.75124892  0.86920519  1
  Gd  Gd35  1  0.58052386  0.83373406  0.58555743  1
  N  N36  1  0.21496617  0.21843971  0.34148671  1
  N  N37  1  0.10651102  0.10129832  0.14583728  1
  N  N38  1  0.89369628  0.19166408  0.87111305  1
  N  N39  1  0.79637316  0.06158183  0.58856339  1
  N  N40  1  0.51524428  0.23137232  0.32037952  1
  N  N41  1  0.43728636  0.09480709  0.10568099  1
  N  N42  1  0.22897180  0.19571301  0.87125654  1
  N  N43  1  0.12698677  0.05542714  0.63594189  1
  N  N44  1  0.89061823  0.23379844  0.34673889  1
  N  N45  1  0.77537351  0.10427611  0.12327538  1
  N  N46  1  0.55783864  0.19917984  0.89741491  1
  N  N47  1  0.45719214  0.08936977  0.55843873  1
  N  N48  1  0.22284552  0.53475229  0.33710108  1
  N  N49  1  0.14586244  0.41725102  0.08426427  1
  N  N50  1  0.89842259  0.51844482  0.85795721  1
  N  N51  1  0.75425457  0.48571466  0.58054731  1
  N  N52  1  0.55335087  0.53603154  0.33647200  1
  N  N53  1  0.43437588  0.44407246  0.08883130  1
  N  N54  1  0.24760209  0.49648654  0.82297222  1
  N  N55  1  0.09727528  0.45057935  0.57769442  1
  N  N56  1  0.88848422  0.53833230  0.33492152  1
  N  N57  1  0.75238071  0.41958469  0.08337376  1
  N  N58  1  0.58120312  0.48068111  0.82522261  1
  N  N59  1  0.44256626  0.43528394  0.57297888  1
  N  N60  1  0.21922163  0.87392963  0.38423454  1
  N  N61  1  0.10426654  0.76860045  0.14911761  1
  N  N62  1  0.86639285  0.88497693  0.92214013  1
  N  N63  1  0.82509271  0.75170869  0.66685288  1
  N  N64  1  0.54911128  0.87249973  0.35134446  1
  N  N65  1  0.43889336  0.76612954  0.13942685  1
  N  N66  1  0.21009475  0.89049967  0.92527170  1
  N  N67  1  0.12442490  0.74711052  0.61530046  1
  N  N68  1  0.90752405  0.82999342  0.39268582  1
  N  N69  1  0.75818660  0.80082435  0.15222326  1
  N  N70  1  0.55948878  0.90089089  0.84026837  1
  N  N71  1  0.42297012  0.74713316  0.65012288  1
