# generated using pymatgen
data_Gd2Al7N9
_symmetry_space_group_name_H-M   'P 1'
_cell_length_a   9.80755871
_cell_length_b   9.92067365
_cell_length_c   10.64233222
_cell_angle_alpha   89.14288044
_cell_angle_beta   89.61617550
_cell_angle_gamma   59.87190710
_symmetry_Int_Tables_number   1
_chemical_formula_structural   Gd2Al7N9
_chemical_formula_sum   'Gd8 Al28 N36'
_cell_volume   895.48583998
_cell_formula_units_Z   4
loop_
 _symmetry_equiv_pos_site_id
 _symmetry_equiv_pos_as_xyz
  1  'x, y, z'
loop_
 _atom_site_type_symbol
 _atom_site_label
 _atom_site_symmetry_multiplicity
 _atom_site_fract_x
 _atom_site_fract_y
 _atom_site_fract_z
 _atom_site_occupancy
  Al  Al0  1  0.11576720  0.10641312  0.31254682  1
  Al  Al1  1  0.22832995  0.20393961  0.06318161  1
  Al  Al2  1  0.76709127  0.09696311  0.89923904  1
  Al  Al3  1  0.44354966  0.09047591  0.29098042  1
  Al  Al4  1  0.54430166  0.21577333  0.08215219  1
  Al  Al5  1  0.11475246  0.08695079  0.83046905  1
  Al  Al6  1  0.89875598  0.20037739  0.06027055  1
  Al  Al7  1  0.44353679  0.09576092  0.82610236  1
  Al  Al8  1  0.12694152  0.42005397  0.30327881  1
  Al  Al9  1  0.23693003  0.53439894  0.06229943  1
  Al  Al10  1  0.77565664  0.41937363  0.88350782  1
  Al  Al11  1  0.88424608  0.55197005  0.65348183  1
  Al  Al12  1  0.43990131  0.43029450  0.30037239  1
  Al  Al13  1  0.56622937  0.53314583  0.13515354  1
  Al  Al14  1  0.12405414  0.42158529  0.82235644  1
  Al  Al15  1  0.21565656  0.54366164  0.55627711  1
  Al  Al16  1  0.78516004  0.45026998  0.39177469  1
  Al  Al17  1  0.44596286  0.40998275  0.81319940  1
  Al  Al18  1  0.54323718  0.54474912  0.63637827  1
  Al  Al19  1  0.12056564  0.74459819  0.31925089  1
  Al  Al20  1  0.21514301  0.87861300  0.08258793  1
  Al  Al21  1  0.77514506  0.78207166  0.82563608  1
  Al  Al22  1  0.89567388  0.85312497  0.54385278  1
  Al  Al23  1  0.44451392  0.76680126  0.30237377  1
  Al  Al24  1  0.55913593  0.88551832  0.06758529  1
  Al  Al25  1  0.21515158  0.86427709  0.55465563  1
  Al  Al26  1  0.78139691  0.75880778  0.30196471  1
  Al  Al27  1  0.89632305  0.87095482  0.07290510  1
  Gd  Gd28  1  0.85616703  0.21627419  0.61851464  1
  Gd  Gd29  1  0.18911736  0.20652565  0.56844855  1
  Gd  Gd30  1  0.80194537  0.09320540  0.32659304  1
  Gd  Gd31  1  0.51741883  0.21205359  0.54173919  1
  Gd  Gd32  1  0.89677507  0.54148990  0.08768981  1
  Gd  Gd33  1  0.10761959  0.76880732  0.79826941  1
  Gd  Gd34  1  0.44928352  0.75172414  0.85564851  1
  Gd  Gd35  1  0.56491543  0.84474555  0.56519814  1
  N  N36  1  0.23620832  0.20117236  0.35560735  1
  N  N37  1  0.10696856  0.10277781  0.13030093  1
  N  N38  1  0.89336365  0.19707089  0.87119382  1
  N  N39  1  0.77084584  0.06867155  0.55219790  1
  N  N40  1  0.53801097  0.21293783  0.32351291  1
  N  N41  1  0.44168366  0.09479560  0.11317310  1
  N  N42  1  0.21628200  0.20620674  0.87906611  1
  N  N43  1  0.10948494  0.04906715  0.65606698  1
  N  N44  1  0.92042693  0.22731959  0.39800161  1
  N  N45  1  0.78125099  0.09831277  0.08985546  1
  N  N46  1  0.54729390  0.20626126  0.88327907  1
  N  N47  1  0.42898708  0.08138744  0.65097980  1
  N  N48  1  0.23339929  0.52598049  0.37243683  1
  N  N49  1  0.15582868  0.40802921  0.12381192  1
  N  N50  1  0.88520359  0.53676174  0.84503888  1
  N  N51  1  0.74710634  0.49676593  0.57046750  1
  N  N52  1  0.56522599  0.53692161  0.31844939  1
  N  N53  1  0.44575458  0.43493519  0.11931856  1
  N  N54  1  0.23590240  0.51948391  0.88354953  1
  N  N55  1  0.10645747  0.44927088  0.64145814  1
  N  N56  1  0.89809747  0.53651335  0.31517984  1
  N  N57  1  0.76294430  0.41673913  0.06207687  1
  N  N58  1  0.58303036  0.49180389  0.81199558  1
  N  N59  1  0.42206995  0.44452728  0.63039280  1
  N  N60  1  0.22338142  0.87721020  0.36485950  1
  N  N61  1  0.11674499  0.75480488  0.13176480  1
  N  N62  1  0.87560837  0.87988394  0.89469316  1
  N  N63  1  0.80540494  0.76486597  0.65042947  1
  N  N64  1  0.55643493  0.87214272  0.34818082  1
  N  N65  1  0.44815250  0.76514369  0.11415191  1
  N  N66  1  0.20051817  0.89565219  0.91005083  1
  N  N67  1  0.10891276  0.75630524  0.58291399  1
  N  N68  1  0.90714671  0.83280621  0.36594131  1
  N  N69  1  0.76527935  0.79678839  0.12693334  1
  N  N70  1  0.56908630  0.88684413  0.88740573  1
  N  N71  1  0.40909276  0.75700383  0.63734594  1
