# generated using pymatgen
data_Gd2Al7N9
_symmetry_space_group_name_H-M   'P 1'
_cell_length_a   9.82993175
_cell_length_b   9.91061760
_cell_length_c   10.63566845
_cell_angle_alpha   89.13162616
_cell_angle_beta   89.60265566
_cell_angle_gamma   59.99348169
_symmetry_Int_Tables_number   1
_chemical_formula_structural   Gd2Al7N9
_chemical_formula_sum   'Gd8 Al28 N36'
_cell_volume   897.15630358
_cell_formula_units_Z   4
loop_
 _symmetry_equiv_pos_site_id
 _symmetry_equiv_pos_as_xyz
  1  'x, y, z'
loop_
 _atom_site_type_symbol
 _atom_site_label
 _atom_site_symmetry_multiplicity
 _atom_site_fract_x
 _atom_site_fract_y
 _atom_site_fract_z
 _atom_site_occupancy
  Al  Al0  1  0.11336245  0.10637345  0.31103359  1
  Al  Al1  1  0.22759416  0.20404020  0.06437587  1
  Al  Al2  1  0.77022342  0.09616686  0.89461734  1
  Al  Al3  1  0.44196105  0.09395168  0.29295172  1
  Al  Al4  1  0.54290745  0.21650687  0.06987312  1
  Al  Al5  1  0.11583603  0.08718339  0.82920385  1
  Al  Al6  1  0.89794670  0.20043932  0.05931183  1
  Al  Al7  1  0.44425977  0.09447878  0.82731790  1
  Al  Al8  1  0.12381746  0.42089286  0.30309901  1
  Al  Al9  1  0.23518229  0.53415779  0.06381039  1
  Al  Al10  1  0.77470417  0.42004715  0.88268665  1
  Al  Al11  1  0.88531164  0.55075423  0.65260247  1
  Al  Al12  1  0.43840021  0.42782927  0.30259711  1
  Al  Al13  1  0.56431429  0.53156080  0.13447963  1
  Al  Al14  1  0.12382721  0.42081424  0.82276454  1
  Al  Al15  1  0.21613047  0.54280862  0.55513755  1
  Al  Al16  1  0.78202814  0.45154015  0.38968131  1
  Al  Al17  1  0.44370991  0.41350754  0.81402329  1
  Al  Al18  1  0.54341076  0.54487463  0.63670988  1
  Al  Al19  1  0.11878591  0.74588220  0.31868541  1
  Al  Al20  1  0.21423110  0.87840781  0.08108810  1
  Al  Al21  1  0.77544050  0.78157182  0.82498522  1
  Al  Al22  1  0.89849195  0.85178243  0.54405607  1
  Al  Al23  1  0.44290087  0.76701146  0.30097127  1
  Al  Al24  1  0.55850212  0.88631965  0.06938422  1
  Al  Al25  1  0.21717666  0.86333583  0.55323601  1
  Al  Al26  1  0.78028800  0.76000265  0.30135095  1
  Al  Al27  1  0.89527552  0.87163219  0.07127873  1
  Gd  Gd28  1  0.86495060  0.21624390  0.61363283  1
  Gd  Gd29  1  0.19877066  0.20376414  0.56752218  1
  Gd  Gd30  1  0.79659556  0.09499323  0.32540129  1
  Gd  Gd31  1  0.52828352  0.20888495  0.55346248  1
  Gd  Gd32  1  0.89425703  0.54200539  0.08775549  1
  Gd  Gd33  1  0.10871742  0.76641238  0.79759088  1
  Gd  Gd34  1  0.44830377  0.75493061  0.85390405  1
  Gd  Gd35  1  0.56829057  0.84154376  0.56253127  1
  N  N36  1  0.23262309  0.20159909  0.35289707  1
  N  N37  1  0.10608725  0.10222049  0.12847459  1
  N  N38  1  0.89439507  0.19777997  0.86879578  1
  N  N39  1  0.78025972  0.06595645  0.55666656  1
  N  N40  1  0.53456340  0.21367585  0.33826960  1
  N  N41  1  0.44189675  0.09745660  0.11358224  1
  N  N42  1  0.21809777  0.20514387  0.87941718  1
  N  N43  1  0.11557439  0.04956046  0.65368159  1
  N  N44  1  0.91643740  0.22850305  0.39295540  1
  N  N45  1  0.77923487  0.09920548  0.08738927  1
  N  N46  1  0.54874147  0.20685000  0.88070814  1
  N  N47  1  0.43490389  0.07653821  0.65247142  1
  N  N48  1  0.23031752  0.52740563  0.37113191  1
  N  N49  1  0.15219897  0.40904020  0.12348933  1
  N  N50  1  0.88544508  0.53613322  0.84458717  1
  N  N51  1  0.74590824  0.49792624  0.56939499  1
  N  N52  1  0.56297151  0.53686302  0.31761724  1
  N  N53  1  0.44507199  0.43096966  0.12023011  1
  N  N54  1  0.23561831  0.51845048  0.88497242  1
  N  N55  1  0.10698790  0.44805771  0.64148615  1
  N  N56  1  0.89552756  0.53806346  0.31492256  1
  N  N57  1  0.76109498  0.41640276  0.06136311  1
  N  N58  1  0.58101374  0.49474444  0.81344319  1
  N  N59  1  0.41907561  0.44808740  0.63237715  1
  N  N60  1  0.22259543  0.87712680  0.36361769  1
  N  N61  1  0.11532601  0.75524799  0.13083947  1
  N  N62  1  0.87649708  0.87944905  0.89285140  1
  N  N63  1  0.80695589  0.76355941  0.64968716  1
  N  N64  1  0.55491490  0.87292671  0.34591819  1
  N  N65  1  0.44671194  0.76492150  0.11299331  1
  N  N66  1  0.19990650  0.89550576  0.90821167  1
  N  N67  1  0.11081753  0.75535895  0.58222284  1
  N  N68  1  0.90553381  0.83439687  0.36588062  1
  N  N69  1  0.76487205  0.79751601  0.12649282  1
  N  N70  1  0.57068303  0.88698209  0.88921541  1
  N  N71  1  0.41080473  0.75704479  0.63524033  1
