# generated using pymatgen
data_Gd2Al7N9
_symmetry_space_group_name_H-M   'P 1'
_cell_length_a   9.80477375
_cell_length_b   9.93815938
_cell_length_c   10.64839255
_cell_angle_alpha   89.14443307
_cell_angle_beta   89.47630658
_cell_angle_gamma   59.81713496
_symmetry_Int_Tables_number   1
_chemical_formula_structural   Gd2Al7N9
_chemical_formula_sum   'Gd8 Al28 N36'
_cell_volume   896.82108205
_cell_formula_units_Z   4
loop_
 _symmetry_equiv_pos_site_id
 _symmetry_equiv_pos_as_xyz
  1  'x, y, z'
loop_
 _atom_site_type_symbol
 _atom_site_label
 _atom_site_symmetry_multiplicity
 _atom_site_fract_x
 _atom_site_fract_y
 _atom_site_fract_z
 _atom_site_occupancy
  Al  Al0  1  0.11514706  0.10765393  0.31172541  1
  Al  Al1  1  0.22991918  0.20421114  0.06214922  1
  Al  Al2  1  0.76103320  0.09920759  0.89944620  1
  Al  Al3  1  0.44147391  0.08772965  0.29353219  1
  Al  Al4  1  0.54878636  0.21358176  0.11687604  1
  Al  Al5  1  0.11437943  0.08697453  0.83099720  1
  Al  Al6  1  0.89744216  0.20092798  0.05995307  1
  Al  Al7  1  0.44443556  0.09404709  0.82050974  1
  Al  Al8  1  0.12603802  0.42092436  0.30227674  1
  Al  Al9  1  0.23917789  0.53228954  0.06160105  1
  Al  Al10  1  0.77521742  0.41924224  0.88376080  1
  Al  Al11  1  0.88519765  0.55207333  0.65482281  1
  Al  Al12  1  0.43865657  0.43495565  0.30457432  1
  Al  Al13  1  0.56600081  0.53411558  0.13616637  1
  Al  Al14  1  0.12598871  0.42041946  0.82239730  1
  Al  Al15  1  0.21540637  0.54440636  0.55578284  1
  Al  Al16  1  0.78588353  0.45062831  0.39270566  1
  Al  Al17  1  0.44743560  0.40869904  0.80820360  1
  Al  Al18  1  0.54309005  0.54582538  0.63502360  1
  Al  Al19  1  0.12019615  0.74432505  0.31821470  1
  Al  Al20  1  0.21471761  0.87899696  0.08226051  1
  Al  Al21  1  0.77482893  0.78370349  0.82604904  1
  Al  Al22  1  0.89631596  0.85203526  0.54434139  1
  Al  Al23  1  0.44304123  0.76789533  0.30222393  1
  Al  Al24  1  0.55902899  0.88674539  0.06682071  1
  Al  Al25  1  0.21387446  0.86538147  0.55545894  1
  Al  Al26  1  0.78132095  0.75865293  0.30136115  1
  Al  Al27  1  0.89580628  0.87150406  0.07292998  1
  Gd  Gd28  1  0.85301900  0.21719032  0.62268370  1
  Gd  Gd29  1  0.18569492  0.20756698  0.56703133  1
  Gd  Gd30  1  0.80770912  0.09059120  0.33115897  1
  Gd  Gd31  1  0.51907581  0.20924829  0.54502755  1
  Gd  Gd32  1  0.89664039  0.54196004  0.08642769  1
  Gd  Gd33  1  0.10784517  0.76831167  0.79931305  1
  Gd  Gd34  1  0.44977723  0.75110999  0.85546935  1
  Gd  Gd35  1  0.56633644  0.84095483  0.56416709  1
  N  N36  1  0.23473181  0.20266457  0.35489537  1
  N  N37  1  0.10635664  0.10327446  0.12992659  1
  N  N38  1  0.89268716  0.19686359  0.87276610  1
  N  N39  1  0.77326437  0.06789724  0.54916808  1
  N  N40  1  0.53908244  0.21270635  0.31746793  1
  N  N41  1  0.44250928  0.09498868  0.11514060  1
  N  N42  1  0.21762985  0.20515576  0.87841799  1
  N  N43  1  0.10706390  0.05030389  0.65663131  1
  N  N44  1  0.92117013  0.22839320  0.39950229  1
  N  N45  1  0.77870096  0.09968500  0.09152420  1
  N  N46  1  0.55266397  0.20097821  0.85452985  1
  N  N47  1  0.42624212  0.07750606  0.64558868  1
  N  N48  1  0.23177642  0.52671895  0.37238900  1
  N  N49  1  0.15589952  0.40815127  0.12315132  1
  N  N50  1  0.88591200  0.53621991  0.84536115  1
  N  N51  1  0.74804267  0.49763309  0.57072842  1
  N  N52  1  0.56463966  0.53863743  0.32000338  1
  N  N53  1  0.44587091  0.43578478  0.12279457  1
  N  N54  1  0.23850774  0.51795386  0.88303475  1
  N  N55  1  0.10784275  0.44891461  0.64165871  1
  N  N56  1  0.89750111  0.53692397  0.31441253  1
  N  N57  1  0.76223326  0.41760646  0.06239079  1
  N  N58  1  0.58363670  0.49179349  0.81018568  1
  N  N59  1  0.42259985  0.44636545  0.62517717  1
  N  N60  1  0.22164638  0.87851452  0.36491684  1
  N  N61  1  0.11670055  0.75493228  0.13142584  1
  N  N62  1  0.87536722  0.88081875  0.89579241  1
  N  N63  1  0.80570169  0.76502634  0.65120874  1
  N  N64  1  0.55582305  0.87173805  0.34815190  1
  N  N65  1  0.44776349  0.76565831  0.11453290  1
  N  N66  1  0.20080172  0.89550723  0.90991869  1
  N  N67  1  0.10880933  0.75654234  0.58380758  1
  N  N68  1  0.90758687  0.83110513  0.36630928  1
  N  N69  1  0.76492860  0.79708436  0.12686512  1
  N  N70  1  0.56830460  0.88716630  0.88716737  1
  N  N71  1  0.40800544  0.75759760  0.63763055  1
