# generated using pymatgen
data_Gd2Al7N9
_symmetry_space_group_name_H-M   'P 1'
_cell_length_a   9.83137600
_cell_length_b   9.91044398
_cell_length_c   10.63430355
_cell_angle_alpha   89.13337997
_cell_angle_beta   89.59299135
_cell_angle_gamma   59.99982332
_symmetry_Int_Tables_number   1
_chemical_formula_structural   Gd2Al7N9
_chemical_formula_sum   'Gd8 Al28 N36'
_cell_volume   897.21512672
_cell_formula_units_Z   4
loop_
 _symmetry_equiv_pos_site_id
 _symmetry_equiv_pos_as_xyz
  1  'x, y, z'
loop_
 _atom_site_type_symbol
 _atom_site_label
 _atom_site_symmetry_multiplicity
 _atom_site_fract_x
 _atom_site_fract_y
 _atom_site_fract_z
 _atom_site_occupancy
  Al  Al0  1  0.11316236  0.10647396  0.30873510  1
  Al  Al1  1  0.22756450  0.20406653  0.06221301  1
  Al  Al2  1  0.77031554  0.09619215  0.89222885  1
  Al  Al3  1  0.44180610  0.09413378  0.29087603  1
  Al  Al4  1  0.54288529  0.21653736  0.06743678  1
  Al  Al5  1  0.11587066  0.08722990  0.82693510  1
  Al  Al6  1  0.89786063  0.20051857  0.05708461  1
  Al  Al7  1  0.44437343  0.09439576  0.82515614  1
  Al  Al8  1  0.12358653  0.42099847  0.30087286  1
  Al  Al9  1  0.23511538  0.53413922  0.06168593  1
  Al  Al10  1  0.77462223  0.42011838  0.88044768  1
  Al  Al11  1  0.88544571  0.55068890  0.65038308  1
  Al  Al12  1  0.43827688  0.42780426  0.30057509  1
  Al  Al13  1  0.56415935  0.53157276  0.13227483  1
  Al  Al14  1  0.12388031  0.42074665  0.82059309  1
  Al  Al15  1  0.21618926  0.54277111  0.55287408  1
  Al  Al16  1  0.78181640  0.45168967  0.38736522  1
  Al  Al17  1  0.44364436  0.41365874  0.81184756  1
  Al  Al18  1  0.54341351  0.54490613  0.63446689  1
  Al  Al19  1  0.11865662  0.74597451  0.31642974  1
  Al  Al20  1  0.21413896  0.87845028  0.07879654  1
  Al  Al21  1  0.77546673  0.78158813  0.82276690  1
  Al  Al22  1  0.89868442  0.85172311  0.54187590  1
  Al  Al23  1  0.44271165  0.76712235  0.29871512  1
  Al  Al24  1  0.55843755  0.88638390  0.06726586  1
  Al  Al25  1  0.21725574  0.86334439  0.55094921  1
  Al  Al26  1  0.78018885  0.76011201  0.29909667  1
  Al  Al27  1  0.89519902  0.87170827  0.06901077  1
  Gd  Gd28  1  0.86539550  0.21632406  0.61119370  1
  Gd  Gd29  1  0.19940684  0.20358274  0.56529193  1
  Gd  Gd30  1  0.79636588  0.09507683  0.32318022  1
  Gd  Gd31  1  0.52893154  0.20866489  0.55185940  1
  Gd  Gd32  1  0.89411734  0.54207567  0.08550689  1
  Gd  Gd33  1  0.10876806  0.76627559  0.79538650  1
  Gd  Gd34  1  0.44823033  0.75512711  0.85156937  1
  Gd  Gd35  1  0.56860343  0.84123914  0.56018043  1
  N  N36  1  0.23236751  0.20170323  0.35055250  1
  N  N37  1  0.10600224  0.10225396  0.12615393  1
  N  N38  1  0.89442401  0.19785698  0.86649682  1
  N  N39  1  0.78083863  0.06583921  0.55465371  1
  N  N40  1  0.53436911  0.21374064  0.33668292  1
  N  N41  1  0.44187282  0.09759202  0.11142600  1
  N  N42  1  0.21823773  0.20506845  0.87719656  1
  N  N43  1  0.11587908  0.04967072  0.65132543  1
  N  N44  1  0.91613636  0.22867514  0.39044404  1
  N  N45  1  0.77913044  0.09928873  0.08512772  1
  N  N46  1  0.54882817  0.20688247  0.87833030  1
  N  N47  1  0.43536590  0.07618119  0.65029862  1
  N  N48  1  0.23010199  0.52752116  0.36885532  1
  N  N49  1  0.15199257  0.40911838  0.12124263  1
  N  N50  1  0.88549312  0.53609185  0.84237425  1
  N  N51  1  0.74586588  0.49807022  0.56714812  1
  N  N52  1  0.56276994  0.53697816  0.31543579  1
  N  N53  1  0.44500315  0.43085387  0.11813360  1
  N  N54  1  0.23564667  0.51838744  0.88283248  1
  N  N55  1  0.10708872  0.44796828  0.63928612  1
  N  N56  1  0.89533609  0.53821676  0.31268088  1
  N  N57  1  0.76094767  0.41646145  0.05914709  1
  N  N58  1  0.58091395  0.49492122  0.81127048  1
  N  N59  1  0.41898878  0.44822906  0.63019869  1
  N  N60  1  0.22244488  0.87722297  0.36132891  1
  N  N61  1  0.11522219  0.75530262  0.12856718  1
  N  N62  1  0.87651496  0.87949170  0.89057666  1
  N  N63  1  0.80713151  0.76348002  0.64746912  1
  N  N64  1  0.55477221  0.87302207  0.34361045  1
  N  N65  1  0.44657740  0.76496955  0.11073631  1
  N  N66  1  0.19985448  0.89553018  0.90588561  1
  N  N67  1  0.11094731  0.75531994  0.57999818  1
  N  N68  1  0.90543024  0.83447910  0.36367654  1
  N  N69  1  0.76480828  0.79759862  0.12425002  1
  N  N70  1  0.57076278  0.88698057  0.88709174  1
  N  N71  1  0.41087673  0.75706494  0.63287273  1
