# generated using pymatgen
data_Gd2Al7N9
_symmetry_space_group_name_H-M   'P 1'
_cell_length_a   9.86833156
_cell_length_b   9.88774047
_cell_length_c   10.39545339
_cell_angle_alpha   89.99198700
_cell_angle_beta   90.17578900
_cell_angle_gamma   60.36222532
_symmetry_Int_Tables_number   1
_chemical_formula_structural   Gd2Al7N9
_chemical_formula_sum   'Gd8 Al28 N36'
_cell_volume   881.62859197
_cell_formula_units_Z   4
loop_
 _symmetry_equiv_pos_site_id
 _symmetry_equiv_pos_as_xyz
  1  'x, y, z'
loop_
 _atom_site_type_symbol
 _atom_site_label
 _atom_site_symmetry_multiplicity
 _atom_site_fract_x
 _atom_site_fract_y
 _atom_site_fract_z
 _atom_site_occupancy
  Al  Al0  1  0.11577442  0.09361406  0.38804114  1
  Al  Al1  1  0.22493484  0.20476039  0.15129070  1
  Al  Al2  1  0.78044047  0.08962870  0.92564001  1
  Al  Al3  1  0.43221313  0.11336831  0.37976916  1
  Al  Al4  1  0.54424334  0.21362543  0.13119631  1
  Al  Al5  1  0.10766940  0.09602747  0.91845463  1
  Al  Al6  1  0.88989080  0.20834544  0.15062268  1
  Al  Al7  1  0.44320383  0.08897303  0.92468384  1
  Al  Al8  1  0.10794866  0.43317582  0.39746750  1
  Al  Al9  1  0.22791327  0.53957355  0.15771959  1
  Al  Al10  1  0.77544280  0.41295920  0.90352189  1
  Al  Al11  1  0.89166102  0.54660150  0.64718750  1
  Al  Al12  1  0.43634481  0.43504658  0.39096072  1
  Al  Al13  1  0.55561355  0.53051789  0.15356195  1
  Al  Al14  1  0.12974189  0.41096598  0.90329741  1
  Al  Al15  1  0.22690045  0.53634224  0.63507988  1
  Al  Al16  1  0.77733082  0.43931958  0.39979664  1
  Al  Al17  1  0.45034296  0.41485336  0.91096639  1
  Al  Al18  1  0.55147118  0.53435188  0.64310776  1
  Al  Al19  1  0.11547807  0.75439261  0.40158741  1
  Al  Al20  1  0.21338643  0.87506221  0.15628069  1
  Al  Al21  1  0.76400885  0.78204480  0.89669395  1
  Al  Al22  1  0.89233752  0.86871769  0.64699296  1
  Al  Al23  1  0.44511140  0.75851939  0.33612839  1
  Al  Al24  1  0.55886993  0.88009532  0.15756679  1
  Al  Al25  1  0.21515944  0.86816736  0.64583657  1
  Al  Al26  1  0.79759938  0.74727746  0.40076099  1
  Al  Al27  1  0.89443482  0.86825245  0.15331033  1
  Gd  Gd28  1  0.89468825  0.20608609  0.65342881  1
  Gd  Gd29  1  0.22226184  0.20524523  0.65006333  1
  Gd  Gd30  1  0.76925210  0.09637011  0.37707816  1
  Gd  Gd31  1  0.55204545  0.21613681  0.67583590  1
  Gd  Gd32  1  0.88944622  0.54221269  0.13336499  1
  Gd  Gd33  1  0.10852744  0.74541484  0.88738199  1
  Gd  Gd34  1  0.44591322  0.75139581  0.88262994  1
  Gd  Gd35  1  0.55619689  0.86642471  0.61417186  1
  N  N36  1  0.21476454  0.21300704  0.33746168  1
  N  N37  1  0.11186511  0.09287988  0.10349181  1
  N  N38  1  0.89206868  0.19707426  0.87424360  1
  N  N39  1  0.78534002  0.07471356  0.59203080  1
  N  N40  1  0.51829918  0.23339815  0.31549082  1
  N  N41  1  0.43964320  0.08864867  0.10756764  1
  N  N42  1  0.22524871  0.19547494  0.87233702  1
  N  N43  1  0.12779898  0.06363632  0.56643392  1
  N  N44  1  0.90001577  0.22698097  0.33663965  1
  N  N45  1  0.78580856  0.08901509  0.11491946  1
  N  N46  1  0.55880752  0.19592510  0.90596230  1
  N  N47  1  0.44469266  0.11414966  0.55809521  1
  N  N48  1  0.21979042  0.54196836  0.34175084  1
  N  N49  1  0.14565296  0.41563538  0.08655942  1
  N  N50  1  0.89088001  0.53833860  0.84995236  1
  N  N51  1  0.76234897  0.46235122  0.58348757  1
  N  N52  1  0.55930820  0.53498632  0.33744317  1
  N  N53  1  0.43516681  0.44459249  0.09173458  1
  N  N54  1  0.25471665  0.48648205  0.81928538  1
  N  N55  1  0.09949190  0.45010010  0.58026322  1
  N  N56  1  0.89032976  0.53916534  0.34852188  1
  N  N57  1  0.75858607  0.41665839  0.08539978  1
  N  N58  1  0.57699226  0.48424547  0.82643374  1
  N  N59  1  0.43600742  0.44618579  0.57070660  1
  N  N60  1  0.21992564  0.86992611  0.33986648  1
  N  N61  1  0.11253926  0.75936531  0.10460955  1
  N  N62  1  0.86061099  0.89217204  0.83450886  1
  N  N63  1  0.81097994  0.74793426  0.58331972  1
  N  N64  1  0.56377458  0.87069863  0.34868403  1
  N  N65  1  0.44627557  0.76207322  0.13067139  1
  N  N66  1  0.19372536  0.90539278  0.83210840  1
  N  N67  1  0.11011530  0.75742119  0.59648667  1
  N  N68  1  0.90876612  0.83909002  0.33344439  1
  N  N69  1  0.76088576  0.79674478  0.08147959  1
  N  N70  1  0.55577790  0.89407877  0.84133661  1
  N  N71  1  0.42631241  0.74401112  0.64130304  1
