# generated using pymatgen
data_Gd2Al7N9
_symmetry_space_group_name_H-M   'P 1'
_cell_length_a   9.80748205
_cell_length_b   9.94327421
_cell_length_c   10.64623027
_cell_angle_alpha   89.15606654
_cell_angle_beta   89.44876411
_cell_angle_gamma   59.80152421
_symmetry_Int_Tables_number   1
_chemical_formula_structural   Gd2Al7N9
_chemical_formula_sum   'Gd8 Al28 N36'
_cell_volume   897.20737208
_cell_formula_units_Z   4
loop_
 _symmetry_equiv_pos_site_id
 _symmetry_equiv_pos_as_xyz
  1  'x, y, z'
loop_
 _atom_site_type_symbol
 _atom_site_label
 _atom_site_symmetry_multiplicity
 _atom_site_fract_x
 _atom_site_fract_y
 _atom_site_fract_z
 _atom_site_occupancy
  Al  Al0  1  0.11460315  0.10809419  0.31141718  1
  Al  Al1  1  0.23003666  0.20434878  0.06227624  1
  Al  Al2  1  0.76032973  0.09949370  0.89861689  1
  Al  Al3  1  0.44096510  0.08787726  0.29457814  1
  Al  Al4  1  0.54913826  0.21345728  0.12113894  1
  Al  Al5  1  0.11455041  0.08689432  0.83097271  1
  Al  Al6  1  0.89683761  0.20111992  0.05984048  1
  Al  Al7  1  0.44449079  0.09329546  0.81949349  1
  Al  Al8  1  0.12545832  0.42134990  0.30204937  1
  Al  Al9  1  0.23947259  0.53186869  0.06177739  1
  Al  Al10  1  0.77511592  0.41921631  0.88374598  1
  Al  Al11  1  0.88560931  0.55202255  0.65504488  1
  Al  Al12  1  0.43840606  0.43533926  0.30615259  1
  Al  Al13  1  0.56564569  0.53408640  0.13657464  1
  Al  Al14  1  0.12645977  0.42003410  0.82252991  1
  Al  Al15  1  0.21551535  0.54437163  0.55544693  1
  Al  Al16  1  0.78565882  0.45103358  0.39273813  1
  Al  Al17  1  0.44758292  0.40876266  0.80704416  1
  Al  Al18  1  0.54308114  0.54602584  0.63467425  1
  Al  Al19  1  0.11983651  0.74446548  0.31789622  1
  Al  Al20  1  0.21443560  0.87913905  0.08207464  1
  Al  Al21  1  0.77471544  0.78408150  0.82609228  1
  Al  Al22  1  0.89694859  0.85149334  0.54451587  1
  Al  Al23  1  0.44241061  0.76830454  0.30212442  1
  Al  Al24  1  0.55878839  0.88721450  0.06708748  1
  Al  Al25  1  0.21372780  0.86555008  0.55556833  1
  Al  Al26  1  0.78108351  0.75888287  0.30121091  1
  Al  Al27  1  0.89536086  0.87188387  0.07277716  1
  Gd  Gd28  1  0.85347742  0.21756900  0.62304595  1
  Gd  Gd29  1  0.18602807  0.20751198  0.56654068  1
  Gd  Gd30  1  0.80823065  0.09036893  0.33218429  1
  Gd  Gd31  1  0.52148392  0.20749020  0.54850879  1
  Gd  Gd32  1  0.89616715  0.54219158  0.08625086  1
  Gd  Gd33  1  0.10818299  0.76776918  0.79952580  1
  Gd  Gd34  1  0.45001331  0.75100926  0.85549088  1
  Gd  Gd35  1  0.56703029  0.83934559  0.56366009  1
  N  N36  1  0.23381878  0.20320096  0.35431869  1
  N  N37  1  0.10594678  0.10340856  0.12964471  1
  N  N38  1  0.89268872  0.19684120  0.87282116  1
  N  N39  1  0.77566809  0.06711439  0.54930303  1
  N  N40  1  0.53903733  0.21269293  0.31918031  1
  N  N41  1  0.44266684  0.09555152  0.11574224  1
  N  N42  1  0.21817275  0.20480724  0.87844305  1
  N  N43  1  0.10723370  0.05069675  0.65650030  1
  N  N44  1  0.92081628  0.22901352  0.39941151  1
  N  N45  1  0.77754537  0.10029791  0.09138183  1
  N  N46  1  0.55442326  0.19959936  0.84726876  1
  N  N47  1  0.42607573  0.07562321  0.64475755  1
  N  N48  1  0.23090597  0.52724774  0.37214980  1
  N  N49  1  0.15537790  0.40845353  0.12288248  1
  N  N50  1  0.88609919  0.53602129  0.84543324  1
  N  N51  1  0.74801252  0.49833350  0.57071207  1
  N  N52  1  0.56415517  0.53916138  0.32044981  1
  N  N53  1  0.44583327  0.43535997  0.12389618  1
  N  N54  1  0.23941866  0.51719670  0.88311577  1
  N  N55  1  0.10832602  0.44869351  0.64177538  1
  N  N56  1  0.89700636  0.53732661  0.31422908  1
  N  N57  1  0.76173530  0.41782795  0.06240718  1
  N  N58  1  0.58373589  0.49171227  0.80987445  1
  N  N59  1  0.42248900  0.44713151  0.62408393  1
  N  N60  1  0.22103238  0.87893965  0.36484850  1
  N  N61  1  0.11642127  0.75514722  0.13115877  1
  N  N62  1  0.87535370  0.88103612  0.89573573  1
  N  N63  1  0.80589858  0.76496701  0.65131709  1
  N  N64  1  0.55540408  0.87184687  0.34792385  1
  N  N65  1  0.44744433  0.76576520  0.11455556  1
  N  N66  1  0.20095323  0.89537449  0.90966581  1
  N  N67  1  0.10914070  0.75633296  0.58404405  1
  N  N68  1  0.90743179  0.83095805  0.36637462  1
  N  N69  1  0.76474945  0.79729806  0.12678066  1
  N  N70  1  0.56821824  0.88733924  0.88745289  1
  N  N71  1  0.40782695  0.75761652  0.63770990  1
