# generated using pymatgen
data_Gd2Al7N9
_symmetry_space_group_name_H-M   'P 1'
_cell_length_a   9.80419927
_cell_length_b   9.93057574
_cell_length_c   10.64469521
_cell_angle_alpha   89.13903845
_cell_angle_beta   89.53329278
_cell_angle_gamma   59.84017506
_symmetry_Int_Tables_number   1
_chemical_formula_structural   Gd2Al7N9
_chemical_formula_sum   'Gd8 Al28 N36'
_cell_volume   895.98264236
_cell_formula_units_Z   4
loop_
 _symmetry_equiv_pos_site_id
 _symmetry_equiv_pos_as_xyz
  1  'x, y, z'
loop_
 _atom_site_type_symbol
 _atom_site_label
 _atom_site_symmetry_multiplicity
 _atom_site_fract_x
 _atom_site_fract_y
 _atom_site_fract_z
 _atom_site_occupancy
  Al  Al0  1  0.11570340  0.10706734  0.31218921  1
  Al  Al1  1  0.22935747  0.20403483  0.06226171  1
  Al  Al2  1  0.76298910  0.09848403  0.90016451  1
  Al  Al3  1  0.44238733  0.08827363  0.29199201  1
  Al  Al4  1  0.54743307  0.21415147  0.10477765  1
  Al  Al5  1  0.11432521  0.08701985  0.83088077  1
  Al  Al6  1  0.89826025  0.20066107  0.06012193  1
  Al  Al7  1  0.44423258  0.09515335  0.82292546  1
  Al  Al8  1  0.12671316  0.42040043  0.30270524  1
  Al  Al9  1  0.23833995  0.53320772  0.06159039  1
  Al  Al10  1  0.77540019  0.41927018  0.88368052  1
  Al  Al11  1  0.88468741  0.55209863  0.65429487  1
  Al  Al12  1  0.43918729  0.43350196  0.30220194  1
  Al  Al13  1  0.56630427  0.53398969  0.13561542  1
  Al  Al14  1  0.12515040  0.42101815  0.82229203  1
  Al  Al15  1  0.21546409  0.54417021  0.55620573  1
  Al  Al16  1  0.78585954  0.45029076  0.39243323  1
  Al  Al17  1  0.44705351  0.40876334  0.81056981  1
  Al  Al18  1  0.54314496  0.54530737  0.63557329  1
  Al  Al19  1  0.12057615  0.74426616  0.31871586  1
  Al  Al20  1  0.21501055  0.87881740  0.08251369  1
  Al  Al21  1  0.77498630  0.78299731  0.82592593  1
  Al  Al22  1  0.89571002  0.85272713  0.54407134  1
  Al  Al23  1  0.44385665  0.76735155  0.30238724  1
  Al  Al24  1  0.55919329  0.88599313  0.06677331  1
  Al  Al25  1  0.21430618  0.86497414  0.55515865  1
  Al  Al26  1  0.78149496  0.75854272  0.30163976  1
  Al  Al27  1  0.89628901  0.87105467  0.07305851  1
  Gd  Gd28  1  0.85352650  0.21673358  0.62125074  1
  Gd  Gd29  1  0.18646291  0.20730400  0.56788404  1
  Gd  Gd30  1  0.80590107  0.09140973  0.32910966  1
  Gd  Gd31  1  0.51680075  0.21123150  0.54111214  1
  Gd  Gd32  1  0.89702631  0.54167074  0.08684808  1
  Gd  Gd33  1  0.10746518  0.76889511  0.79892827  1
  Gd  Gd34  1  0.44947002  0.75123115  0.85553091  1
  Gd  Gd35  1  0.56548535  0.84309269  0.56491187  1
  N  N36  1  0.23584002  0.20190764  0.35557915  1
  N  N37  1  0.10679864  0.10309104  0.13022459  1
  N  N38  1  0.89281007  0.19691445  0.87229715  1
  N  N39  1  0.77077754  0.06875267  0.54979322  1
  N  N40  1  0.53895690  0.21272490  0.31673517  1
  N  N41  1  0.44197043  0.09428777  0.11415883  1
  N  N42  1  0.21680952  0.20570252  0.87848525  1
  N  N43  1  0.10758622  0.04969922  0.65653862  1
  N  N44  1  0.92121421  0.22772558  0.39917835  1
  N  N45  1  0.78048761  0.09874992  0.09130662  1
  N  N46  1  0.54947899  0.20360742  0.86892402  1
  N  N47  1  0.42731623  0.08004410  0.64765146  1
  N  N48  1  0.23291582  0.52608118  0.37259273  1
  N  N49  1  0.15629273  0.40789238  0.12346786  1
  N  N50  1  0.88558314  0.53649921  0.84522612  1
  N  N51  1  0.74783141  0.49694831  0.57069181  1
  N  N52  1  0.56513411  0.53786591  0.31934996  1
  N  N53  1  0.44571580  0.43625434  0.12101760  1
  N  N54  1  0.23709929  0.51898445  0.88301811  1
  N  N55  1  0.10713302  0.44919301  0.64149277  1
  N  N56  1  0.89803359  0.53655107  0.31474610  1
  N  N57  1  0.76277748  0.41722660  0.06232774  1
  N  N58  1  0.58342346  0.49174181  0.81083428  1
  N  N59  1  0.42280901  0.44490723  0.62728570  1
  N  N60  1  0.22250629  0.87791062  0.36492636  1
  N  N61  1  0.11689712  0.75474488  0.13167736  1
  N  N62  1  0.87533439  0.88050599  0.89553178  1
  N  N63  1  0.80554008  0.76502960  0.65090333  1
  N  N64  1  0.55628250  0.87177730  0.34840249  1
  N  N65  1  0.44808970  0.76545279  0.11442048  1
  N  N66  1  0.20062490  0.89564906  0.91012910  1
  N  N67  1  0.10864917  0.75658884  0.58339662  1
  N  N68  1  0.90760978  0.83163793  0.36612812  1
  N  N69  1  0.76510570  0.79687093  0.12690464  1
  N  N70  1  0.56853686  0.88687844  0.88691201  1
  N  N71  1  0.40841619  0.75734185  0.63746572  1
