# generated using pymatgen
data_Gd2Al7N9
_symmetry_space_group_name_H-M   'P 1'
_cell_length_a   9.85126907
_cell_length_b   9.89574158
_cell_length_c   10.55058185
_cell_angle_alpha   88.91718971
_cell_angle_beta   89.64099981
_cell_angle_gamma   60.06441048
_symmetry_Int_Tables_number   1
_chemical_formula_structural   Gd2Al7N9
_chemical_formula_sum   'Gd8 Al28 N36'
_cell_volume   891.14550792
_cell_formula_units_Z   4
loop_
 _symmetry_equiv_pos_site_id
 _symmetry_equiv_pos_as_xyz
  1  'x, y, z'
loop_
 _atom_site_type_symbol
 _atom_site_label
 _atom_site_symmetry_multiplicity
 _atom_site_fract_x
 _atom_site_fract_y
 _atom_site_fract_z
 _atom_site_occupancy
  Al  Al0  1  0.11478938  0.09955927  0.29287566  1
  Al  Al1  1  0.22711795  0.20210006  0.05222747  1
  Al  Al2  1  0.76646400  0.10291425  0.88122323  1
  Al  Al3  1  0.43981586  0.09333726  0.27979669  1
  Al  Al4  1  0.54061173  0.21747437  0.05720966  1
  Al  Al5  1  0.11217277  0.09113809  0.81856919  1
  Al  Al6  1  0.89277717  0.20748577  0.04889925  1
  Al  Al7  1  0.44488947  0.09742539  0.81840455  1
  Al  Al8  1  0.12366746  0.41889162  0.29231719  1
  Al  Al9  1  0.23255553  0.53344549  0.05442619  1
  Al  Al10  1  0.76605969  0.43371293  0.82447322  1
  Al  Al11  1  0.89146584  0.54868131  0.64700127  1
  Al  Al12  1  0.44143014  0.42843097  0.29303477  1
  Al  Al13  1  0.55147441  0.53423055  0.05374612  1
  Al  Al14  1  0.12789020  0.42031256  0.81372251  1
  Al  Al15  1  0.21961293  0.54516762  0.54645018  1
  Al  Al16  1  0.78506907  0.42914259  0.31300486  1
  Al  Al17  1  0.44230886  0.42943270  0.80835884  1
  Al  Al18  1  0.54377726  0.55048247  0.54834843  1
  Al  Al19  1  0.11782741  0.74422412  0.30239146  1
  Al  Al20  1  0.21973886  0.87297207  0.06583599  1
  Al  Al21  1  0.77338587  0.78355984  0.81440942  1
  Al  Al22  1  0.90423326  0.84824930  0.53193549  1
  Al  Al23  1  0.44554889  0.75816680  0.29303403  1
  Al  Al24  1  0.55497168  0.87977524  0.05749436  1
  Al  Al25  1  0.21847834  0.86481732  0.53129745  1
  Al  Al26  1  0.78173945  0.75472495  0.28574187  1
  Al  Al27  1  0.89189720  0.87257186  0.05681325  1
  Gd  Gd28  1  0.87628244  0.20782558  0.58749515  1
  Gd  Gd29  1  0.20486711  0.20350879  0.55651274  1
  Gd  Gd30  1  0.78975735  0.08853131  0.30937465  1
  Gd  Gd31  1  0.53067439  0.21858784  0.54964609  1
  Gd  Gd32  1  0.89438173  0.53919205  0.06732732  1
  Gd  Gd33  1  0.10307705  0.76768205  0.78939988  1
  Gd  Gd34  1  0.43852675  0.77119920  0.79991733  1
  Gd  Gd35  1  0.57961484  0.85653745  0.54061218  1
  N  N36  1  0.23071211  0.19698206  0.33998536  1
  N  N37  1  0.10730986  0.09907412  0.10997364  1
  N  N38  1  0.88653172  0.20955449  0.85537461  1
  N  N39  1  0.77909270  0.06177087  0.54373464  1
  N  N40  1  0.52940388  0.21345365  0.33206454  1
  N  N41  1  0.44211486  0.09541440  0.09875710  1
  N  N42  1  0.21865293  0.20515267  0.86626066  1
  N  N43  1  0.12454750  0.04516385  0.64103972  1
  N  N44  1  0.91412616  0.22108501  0.36904456  1
  N  N45  1  0.77648315  0.10026215  0.07354082  1
  N  N46  1  0.54604410  0.21458155  0.86562291  1
  N  N47  1  0.43902321  0.07986051  0.64133113  1
  N  N48  1  0.23142970  0.52625046  0.36078972  1
  N  N49  1  0.15150478  0.40668265  0.11263463  1
  N  N50  1  0.89113997  0.53952579  0.83901809  1
  N  N51  1  0.74825854  0.47641663  0.62795429  1
  N  N52  1  0.55946312  0.53152044  0.35899552  1
  N  N53  1  0.44325582  0.43200414  0.11249178  1
  N  N54  1  0.23427242  0.51980856  0.87509745  1
  N  N55  1  0.11250754  0.44790406  0.63138243  1
  N  N56  1  0.89623862  0.53525705  0.30719223  1
  N  N57  1  0.76473263  0.41211115  0.09771895  1
  N  N58  1  0.55614814  0.52171164  0.87407918  1
  N  N59  1  0.42666563  0.46302441  0.62640910  1
  N  N60  1  0.21811130  0.87470525  0.34409832  1
  N  N61  1  0.11248643  0.75462664  0.11447925  1
  N  N62  1  0.87041673  0.88692451  0.87809820  1
  N  N63  1  0.81434437  0.75959458  0.63839825  1
  N  N64  1  0.55647682  0.87074318  0.32652084  1
  N  N65  1  0.44704343  0.75677272  0.10717168  1
  N  N66  1  0.20528424  0.89346629  0.89093444  1
  N  N67  1  0.11454907  0.75733984  0.57260601  1
  N  N68  1  0.90663288  0.82858859  0.35328603  1
  N  N69  1  0.76446006  0.79449687  0.11045446  1
  N  N70  1  0.56714888  0.88544121  0.87536709  1
  N  N71  1  0.42578543  0.76000501  0.58222199  1
