# generated using pymatgen
data_LiAlSe2
_symmetry_space_group_name_H-M   'P 1'
_cell_length_a   6.93232449
_cell_length_b   8.56530865
_cell_length_c   6.61446682
_cell_angle_alpha   90.07667822
_cell_angle_beta   90.13723590
_cell_angle_gamma   89.96741336
_symmetry_Int_Tables_number   1
_chemical_formula_structural   LiAlSe2
_chemical_formula_sum   'Li4 Al4 Se8'
_cell_volume   392.74895548
_cell_formula_units_Z   4
loop_
 _symmetry_equiv_pos_site_id
 _symmetry_equiv_pos_as_xyz
  1  'x, y, z'
loop_
 _atom_site_type_symbol
 _atom_site_label
 _atom_site_symmetry_multiplicity
 _atom_site_fract_x
 _atom_site_fract_y
 _atom_site_fract_z
 _atom_site_occupancy
  Al  Al0  1  -0.93007908  0.13901138  -0.84674124  1
  Al  Al1  1  -0.06436913  0.88587245  -0.34868925  1
  Al  Al2  1  -0.42992193  0.38672951  -0.01018073  1
  Al  Al3  1  -0.56249060  0.63960115  -0.50835080  1
  Se  Se4  1  -0.04788406  0.89817374  -0.98170838  1
  Se  Se5  1  -0.93896175  0.12555024  -0.48079217  1
  Se  Se6  1  -0.58359778  0.15031111  -0.90376536  1
  Se  Se7  1  -0.08280215  0.37574545  -0.95533820  1
  Se  Se8  1  -0.41172668  0.87680465  -0.39728129  1
  Se  Se9  1  -0.91022480  0.64863344  -0.45409271  1
  Se  Se10  1  -0.55640901  0.62508457  -0.87526426  1
  Se  Se11  1  -0.43814965  0.39952330  -0.37651609  1
  Li  Li12  1  -0.41481963  0.88962966  -0.97458056  1
  Li  Li13  1  -0.92722629  0.63466715  -0.84407527  1
  Li  Li14  1  -0.56740453  0.13696618  -0.51155075  1
  Li  Li15  1  -0.06653447  0.38876774  -0.34662678  1
