# generated using pymatgen
data_LiAlSe2
_symmetry_space_group_name_H-M   'P 1'
_cell_length_a   6.95719542
_cell_length_b   8.56124917
_cell_length_c   6.61446859
_cell_angle_alpha   89.89848366
_cell_angle_beta   89.94648625
_cell_angle_gamma   89.92210885
_symmetry_Int_Tables_number   1
_chemical_formula_structural   LiAlSe2
_chemical_formula_sum   'Li4 Al4 Se8'
_cell_volume   393.97170023
_cell_formula_units_Z   4
loop_
 _symmetry_equiv_pos_site_id
 _symmetry_equiv_pos_as_xyz
  1  'x, y, z'
loop_
 _atom_site_type_symbol
 _atom_site_label
 _atom_site_symmetry_multiplicity
 _atom_site_fract_x
 _atom_site_fract_y
 _atom_site_fract_z
 _atom_site_occupancy
  Al  Al0  1  -0.92856715  0.13864868  -0.85529162  1
  Al  Al1  1  -0.06701052  0.88551071  -0.35533959  1
  Al  Al2  1  -0.43003782  0.38505244  -0.01435957  1
  Al  Al3  1  -0.56491592  0.63577384  -0.51873319  1
  Se  Se4  1  -0.05367320  0.89904454  -0.98909959  1
  Se  Se5  1  -0.94479854  0.12610526  -0.48860582  1
  Se  Se6  1  -0.58465055  0.14712571  -0.91430987  1
  Se  Se7  1  -0.08352178  0.37583560  -0.96094958  1
  Se  Se8  1  -0.40557103  0.87713557  -0.44081560  1
  Se  Se9  1  -0.91027916  0.64910856  -0.46090869  1
  Se  Se10  1  -0.55862211  0.62432207  -0.88652796  1
  Se  Se11  1  -0.43623709  0.39937105  -0.38186629  1
  Li  Li12  1  -0.39216514  0.89345742  -0.84752524  1
  Li  Li13  1  -0.92664822  0.63554183  -0.85308515  1
  Li  Li14  1  -0.57893443  0.13894411  -0.49615417  1
  Li  Li15  1  -0.06696887  0.39009432  -0.35198189  1
