# generated using pymatgen
data_LiAlSe2
_symmetry_space_group_name_H-M   'P 1'
_cell_length_a   6.61451364
_cell_length_b   6.97992215
_cell_length_c   8.48331107
_cell_angle_alpha   90.26231866
_cell_angle_beta   90.75725422
_cell_angle_gamma   90.10975776
_symmetry_Int_Tables_number   1
_chemical_formula_structural   LiAlSe2
_chemical_formula_sum   'Li4 Al4 Se8'
_cell_volume   391.62513296
_cell_formula_units_Z   4
loop_
 _symmetry_equiv_pos_site_id
 _symmetry_equiv_pos_as_xyz
  1  'x, y, z'
loop_
 _atom_site_type_symbol
 _atom_site_label
 _atom_site_symmetry_multiplicity
 _atom_site_fract_x
 _atom_site_fract_y
 _atom_site_fract_z
 _atom_site_occupancy
  Al  Al0  1  0.86522279  0.92417052  0.13904669  1
  Al  Al1  1  0.35534796  0.06635705  0.88956281  1
  Al  Al2  1  0.03761720  0.42983453  0.38791405  1
  Al  Al3  1  0.41446492  0.56959941  0.64597279  1
  Se  Se4  1  0.99147985  0.05749371  0.89824431  1
  Se  Se5  1  0.49658049  0.93576590  0.12725866  1
  Se  Se6  1  0.95979315  0.58957700  0.14162777  1
  Se  Se7  1  0.96462638  0.08642189  0.37728632  1
  Se  Se8  1  0.47017619  0.39798712  0.88473506  1
  Se  Se9  1  0.47061036  0.90860906  0.65241277  1
  Se  Se10  1  0.94448597  0.56428541  0.62912682  1
  Se  Se11  1  0.41259513  0.42607896  0.39381678  1
  Li  Li12  1  0.86484883  0.40065775  0.88689825  1
  Li  Li13  1  0.86361612  0.91519462  0.63255752  1
  Li  Li14  1  0.35133788  0.59962258  0.12472091  1
  Li  Li15  1  0.35275060  0.06094602  0.38989021  1
