# generated using pymatgen
data_LiAlSe2
_symmetry_space_group_name_H-M   'P 1'
_cell_length_a   6.61436306
_cell_length_b   6.94618686
_cell_length_c   8.40454174
_cell_angle_alpha   89.89181325
_cell_angle_beta   89.31058226
_cell_angle_gamma   90.06750766
_symmetry_Int_Tables_number   1
_chemical_formula_structural   LiAlSe2
_chemical_formula_sum   'Li4 Al4 Se8'
_cell_volume   386.11440322
_cell_formula_units_Z   4
loop_
 _symmetry_equiv_pos_site_id
 _symmetry_equiv_pos_as_xyz
  1  'x, y, z'
loop_
 _atom_site_type_symbol
 _atom_site_label
 _atom_site_symmetry_multiplicity
 _atom_site_fract_x
 _atom_site_fract_y
 _atom_site_fract_z
 _atom_site_occupancy
  Al  Al0  1  0.99496578  0.92461179  0.13760781  1
  Al  Al1  1  0.41362733  0.07023331  0.87902756  1
  Al  Al2  1  0.99078628  0.42083603  0.38835363  1
  Al  Al3  1  0.49269854  0.56615111  0.63654668  1
  Se  Se4  1  0.87096123  0.05969185  0.89858267  1
  Se  Se5  1  0.36344338  0.92535610  0.13102573  1
  Se  Se6  1  0.88229708  0.59139868  0.15482685  1
  Se  Se7  1  0.88424523  0.08861706  0.37832829  1
  Se  Se8  1  0.37152131  0.41204708  0.87827064  1
  Se  Se9  1  0.37677106  0.89938558  0.63590073  1
  Se  Se10  1  0.85674187  0.55653035  0.63113870  1
  Se  Se11  1  0.35826771  0.43251675  0.39707456  1
  Li  Li12  1  0.97879467  0.40932612  0.89657809  1
  Li  Li13  1  0.98308729  0.90540893  0.63683006  1
  Li  Li14  1  0.49838763  0.57843361  0.13690733  1
  Li  Li15  1  0.49895745  0.09205718  0.38407238  1
