# generated using pymatgen
data_LiAlSe2
_symmetry_space_group_name_H-M   'P 1'
_cell_length_a   6.61440968
_cell_length_b   6.96152261
_cell_length_c   8.52186485
_cell_angle_alpha   89.84577777
_cell_angle_beta   90.22083521
_cell_angle_gamma   89.94116261
_symmetry_Int_Tables_number   1
_chemical_formula_structural   LiAlSe2
_chemical_formula_sum   'Li4 Al4 Se8'
_cell_volume   392.39633116
_cell_formula_units_Z   4
loop_
 _symmetry_equiv_pos_site_id
 _symmetry_equiv_pos_as_xyz
  1  'x, y, z'
loop_
 _atom_site_type_symbol
 _atom_site_label
 _atom_site_symmetry_multiplicity
 _atom_site_fract_x
 _atom_site_fract_y
 _atom_site_fract_z
 _atom_site_occupancy
  Al  Al0  1  0.82597158  0.92857337  0.13624281  1
  Al  Al1  1  0.32710330  0.06296981  0.88843559  1
  Al  Al2  1  0.99001044  0.42538955  0.38613558  1
  Al  Al3  1  0.49013432  0.56627361  0.63859521  1
  Se  Se4  1  0.95839447  0.06025348  0.89915396  1
  Se  Se5  1  0.45801558  0.93149094  0.12677209  1
  Se  Se6  1  0.88814044  0.58399173  0.14791583  1
  Se  Se7  1  0.89557361  0.08948621  0.38052425  1
  Se  Se8  1  0.38806361  0.40754012  0.87622562  1
  Se  Se9  1  0.39308043  0.90182166  0.64406018  1
  Se  Se10  1  0.85686213  0.55650528  0.62493848  1
  Se  Se11  1  0.35680120  0.43491395  0.39961149  1
  Li  Li12  1  0.99571215  0.42709219  0.88826495  1
  Li  Li13  1  0.99498849  0.89606594  0.62653155  1
  Li  Li14  1  0.49630126  0.56345767  0.13676609  1
  Li  Li15  1  0.50040081  0.09677603  0.40089803  1
