# generated using pymatgen
data_LiAlSe2
_symmetry_space_group_name_H-M   'P 1'
_cell_length_a   6.94120888
_cell_length_b   8.57399306
_cell_length_c   6.61447182
_cell_angle_alpha   89.94607930
_cell_angle_beta   90.18879356
_cell_angle_gamma   89.99552584
_symmetry_Int_Tables_number   1
_chemical_formula_structural   LiAlSe2
_chemical_formula_sum   'Li4 Al4 Se8'
_cell_volume   393.65054817
_cell_formula_units_Z   4
loop_
 _symmetry_equiv_pos_site_id
 _symmetry_equiv_pos_as_xyz
  1  'x, y, z'
loop_
 _atom_site_type_symbol
 _atom_site_label
 _atom_site_symmetry_multiplicity
 _atom_site_fract_x
 _atom_site_fract_y
 _atom_site_fract_z
 _atom_site_occupancy
  Al  Al0  1  -0.92924649  0.13900742  -0.84041706  1
  Al  Al1  1  -0.06109728  0.88613167  -0.33925398  1
  Al  Al2  1  -0.42639488  0.38563722  -0.00061841  1
  Al  Al3  1  -0.56027338  0.63872310  -0.50421336  1
  Se  Se4  1  -0.05501573  0.89996169  -0.97288859  1
  Se  Se5  1  -0.93148193  0.12297744  -0.47284057  1
  Se  Se6  1  -0.58248594  0.14871049  -0.89780424  1
  Se  Se7  1  -0.08277195  0.37807366  -0.93675103  1
  Se  Se8  1  -0.40738773  0.87534135  -0.39611927  1
  Se  Se9  1  -0.90528761  0.65016848  -0.44251566  1
  Se  Se10  1  -0.55324143  0.62543155  -0.87009369  1
  Se  Se11  1  -0.44272404  0.39798303  -0.36802513  1
  Li  Li12  1  -0.42609085  0.88875140  -0.00444769  1
  Li  Li13  1  -0.92335179  0.63913966  -0.83730359  1
  Li  Li14  1  -0.56234385  0.13447420  -0.50782810  1
  Li  Li15  1  -0.08340666  0.39055935  -0.42443346  1
