# generated using pymatgen
data_LiAlSe2
_symmetry_space_group_name_H-M   'P 1'
_cell_length_a   6.94954265
_cell_length_b   8.45994449
_cell_length_c   6.61453446
_cell_angle_alpha   88.69340796
_cell_angle_beta   90.14440988
_cell_angle_gamma   89.83174539
_symmetry_Int_Tables_number   1
_chemical_formula_structural   LiAlSe2
_chemical_formula_sum   'Li4 Al4 Se8'
_cell_volume   388.78254636
_cell_formula_units_Z   4
loop_
 _symmetry_equiv_pos_site_id
 _symmetry_equiv_pos_as_xyz
  1  'x, y, z'
loop_
 _atom_site_type_symbol
 _atom_site_label
 _atom_site_symmetry_multiplicity
 _atom_site_fract_x
 _atom_site_fract_y
 _atom_site_fract_z
 _atom_site_occupancy
  Al  Al0  1  -0.92512286  0.13835709  -0.86566023  1
  Al  Al1  1  -0.07083616  0.88914747  -0.35844033  1
  Al  Al2  1  -0.42306641  0.37754926  -0.05669932  1
  Al  Al3  1  -0.57394793  0.64988116  -0.33784046  1
  Se  Se4  1  -0.05875416  0.89790579  -0.99253417  1
  Se  Se5  1  -0.93761357  0.12963802  -0.49832948  1
  Se  Se6  1  -0.58878861  0.13773720  -0.96260425  1
  Se  Se7  1  -0.08350546  0.37936961  -0.97004194  1
  Se  Se8  1  -0.40228113  0.87765947  -0.46954556  1
  Se  Se9  1  -0.89985474  0.65773894  -0.46907556  1
  Se  Se10  1  -0.56320888  0.62731111  -0.97230545  1
  Se  Se11  1  -0.43210818  0.40016458  -0.42498336  1
  Li  Li12  1  -0.40094248  0.88409546  -0.85853144  1
  Li  Li13  1  -0.91329950  0.63510327  -0.85761693  1
  Li  Li14  1  -0.59565604  0.12383581  -0.35915857  1
  Li  Li15  1  -0.06361543  0.39557747  -0.36218678  1
