# generated using pymatgen
data_LiAlSe2
_symmetry_space_group_name_H-M   'P 1'
_cell_length_a   6.94992214
_cell_length_b   8.45712995
_cell_length_c   6.61439587
_cell_angle_alpha   91.34354680
_cell_angle_beta   90.13940490
_cell_angle_gamma   90.13782680
_symmetry_Int_Tables_number   1
_chemical_formula_structural   LiAlSe2
_chemical_formula_sum   'Li4 Al4 Se8'
_cell_volume   388.66113100
_cell_formula_units_Z   4
loop_
 _symmetry_equiv_pos_site_id
 _symmetry_equiv_pos_as_xyz
  1  'x, y, z'
loop_
 _atom_site_type_symbol
 _atom_site_label
 _atom_site_symmetry_multiplicity
 _atom_site_fract_x
 _atom_site_fract_y
 _atom_site_fract_z
 _atom_site_occupancy
  Al  Al0  1  -0.91748787  0.14996669  -0.01529997  1
  Al  Al1  1  -0.06885909  0.87695546  -0.29517432  1
  Al  Al2  1  -0.42068815  0.38948121  -0.99372526  1
  Al  Al3  1  -0.56657954  0.63829048  -0.48612746  1
  Se  Se4  1  -0.05908945  0.90051216  -0.92682222  1
  Se  Se5  1  -0.92858699  0.12656307  -0.38050925  1
  Se  Se6  1  -0.59196904  0.15829270  -0.88317489  1
  Se  Se7  1  -0.08926485  0.37765260  -0.88292561  1
  Se  Se8  1  -0.40857551  0.87934159  -0.38090856  1
  Se  Se9  1  -0.90278776  0.63698088  -0.38860966  1
  Se  Se10  1  -0.55381653  0.63012525  -0.85344433  1
  Se  Se11  1  -0.43258560  0.39781079  -0.35964041  1
  Li  Li12  1  -0.42731662  0.89619634  -0.98854735  1
  Li  Li13  1  -0.89608716  0.62412127  -0.99171851  1
  Li  Li14  1  -0.57837436  0.13515797  -0.49474426  1
  Li  Li15  1  -0.09053300  0.38362324  -0.49418177  1
