# generated using pymatgen
data_LiAlSe2
_symmetry_space_group_name_H-M   'P 1'
_cell_length_a   6.96669611
_cell_length_b   8.56157869
_cell_length_c   6.61447388
_cell_angle_alpha   89.94835539
_cell_angle_beta   89.95302319
_cell_angle_gamma   89.94630684
_symmetry_Int_Tables_number   1
_chemical_formula_structural   LiAlSe2
_chemical_formula_sum   'Li4 Al4 Se8'
_cell_volume   394.52589382
_cell_formula_units_Z   4
loop_
 _symmetry_equiv_pos_site_id
 _symmetry_equiv_pos_as_xyz
  1  'x, y, z'
loop_
 _atom_site_type_symbol
 _atom_site_label
 _atom_site_symmetry_multiplicity
 _atom_site_fract_x
 _atom_site_fract_y
 _atom_site_fract_z
 _atom_site_occupancy
  Al  Al0  1  -0.92729937  0.13889901  -0.85784494  1
  Al  Al1  1  -0.06541586  0.88579810  -0.35607779  1
  Al  Al2  1  -0.43066997  0.38535624  -0.01682271  1
  Al  Al3  1  -0.56432504  0.63605764  -0.52135837  1
  Se  Se4  1  -0.05514014  0.89924963  -0.99004426  1
  Se  Se5  1  -0.94373906  0.12638636  -0.49071307  1
  Se  Se6  1  -0.58764620  0.14509647  -0.93281473  1
  Se  Se7  1  -0.08493009  0.37580805  -0.96042836  1
  Se  Se8  1  -0.40201131  0.87701396  -0.44788907  1
  Se  Se9  1  -0.90855088  0.64933084  -0.46098247  1
  Se  Se10  1  -0.56022178  0.62427252  -0.88899951  1
  Se  Se11  1  -0.43224819  0.40128898  -0.38513071  1
  Li  Li12  1  -0.39466983  0.89540030  -0.85152591  1
  Li  Li13  1  -0.92778905  0.63562156  -0.85335668  1
  Li  Li14  1  -0.58338230  0.13512795  -0.45041326  1
  Li  Li15  1  -0.06456247  0.39036410  -0.35115200  1
