# generated using pymatgen
data_LiAlSe2
_symmetry_space_group_name_H-M   'P 1'
_cell_length_a   6.61449426
_cell_length_b   6.98528195
_cell_length_c   8.48780633
_cell_angle_alpha   90.26387735
_cell_angle_beta   90.61420577
_cell_angle_gamma   90.06828830
_symmetry_Int_Tables_number   1
_chemical_formula_structural   LiAlSe2
_chemical_formula_sum   'Li4 Al4 Se8'
_cell_volume   392.14452056
_cell_formula_units_Z   4
loop_
 _symmetry_equiv_pos_site_id
 _symmetry_equiv_pos_as_xyz
  1  'x, y, z'
loop_
 _atom_site_type_symbol
 _atom_site_label
 _atom_site_symmetry_multiplicity
 _atom_site_fract_x
 _atom_site_fract_y
 _atom_site_fract_z
 _atom_site_occupancy
  Al  Al0  1  0.86381359  0.92458721  0.13874792  1
  Al  Al1  1  0.35703501  0.06631827  0.88937629  1
  Al  Al2  1  0.02912638  0.43004067  0.38867287  1
  Al  Al3  1  0.49977714  0.56575673  0.64143006  1
  Se  Se4  1  0.99203101  0.05728131  0.89866118  1
  Se  Se5  1  0.49600044  0.93529582  0.12748198  1
  Se  Se6  1  0.95922944  0.59021711  0.14211515  1
  Se  Se7  1  0.96429188  0.08588538  0.37706934  1
  Se  Se8  1  0.46445684  0.39893385  0.88581750  1
  Se  Se9  1  0.46624471  0.90982742  0.65171874  1
  Se  Se10  1  0.89418847  0.56116947  0.62455994  1
  Se  Se11  1  0.39887746  0.42818979  0.39693604  1
  Li  Li12  1  0.86368999  0.39892879  0.89049416  1
  Li  Li13  1  0.86191450  0.91925907  0.63326277  1
  Li  Li14  1  0.35166372  0.59952633  0.12496433  1
  Li  Li15  1  0.35321325  0.06138432  0.38976346  1
