# generated using pymatgen
data_LiAlSe2
_symmetry_space_group_name_H-M   'P 1'
_cell_length_a   6.95541053
_cell_length_b   8.41813382
_cell_length_c   6.61453212
_cell_angle_alpha   89.20599115
_cell_angle_beta   90.11241859
_cell_angle_gamma   89.88194219
_symmetry_Int_Tables_number   1
_chemical_formula_structural   LiAlSe2
_chemical_formula_sum   'Li4 Al4 Se8'
_cell_volume   387.25250635
_cell_formula_units_Z   4
loop_
 _symmetry_equiv_pos_site_id
 _symmetry_equiv_pos_as_xyz
  1  'x, y, z'
loop_
 _atom_site_type_symbol
 _atom_site_label
 _atom_site_symmetry_multiplicity
 _atom_site_fract_x
 _atom_site_fract_y
 _atom_site_fract_z
 _atom_site_occupancy
  Al  Al0  1  -0.92572322  0.13690336  -0.86064002  1
  Al  Al1  1  -0.07059378  0.88844397  -0.36007217  1
  Al  Al2  1  -0.42177001  0.37814189  -0.02261291  1
  Al  Al3  1  -0.57058897  0.64345974  -0.34655175  1
  Se  Se4  1  -0.05939482  0.89706534  -0.99321900  1
  Se  Se5  1  -0.93587154  0.13062055  -0.49542660  1
  Se  Se6  1  -0.59184213  0.13475147  -0.96892815  1
  Se  Se7  1  -0.07870289  0.37906393  -0.97530386  1
  Se  Se8  1  -0.40246491  0.87772582  -0.46779739  1
  Se  Se9  1  -0.89973025  0.65538753  -0.46937326  1
  Se  Se10  1  -0.56656476  0.63179488  -0.97868866  1
  Se  Se11  1  -0.43095253  0.39721233  -0.43273321  1
  Li  Li12  1  -0.39911180  0.88433990  -0.85321267  1
  Li  Li13  1  -0.91335908  0.63697605  -0.85387586  1
  Li  Li14  1  -0.58968163  0.13242495  -0.36627213  1
  Li  Li15  1  -0.07624921  0.39676002  -0.37084619  1
