# generated using pymatgen
data_LiAlSe2
_symmetry_space_group_name_H-M   'P 1'
_cell_length_a   6.61440193
_cell_length_b   6.97965527
_cell_length_c   8.48288573
_cell_angle_alpha   89.74001511
_cell_angle_beta   89.22655538
_cell_angle_gamma   90.11659334
_symmetry_Int_Tables_number   1
_chemical_formula_structural   LiAlSe2
_chemical_formula_sum   'Li4 Al4 Se8'
_cell_volume   391.58241003
_cell_formula_units_Z   4
loop_
 _symmetry_equiv_pos_site_id
 _symmetry_equiv_pos_as_xyz
  1  'x, y, z'
loop_
 _atom_site_type_symbol
 _atom_site_label
 _atom_site_symmetry_multiplicity
 _atom_site_fract_x
 _atom_site_fract_y
 _atom_site_fract_z
 _atom_site_occupancy
  Al  Al0  1  0.94018070  0.92186922  0.14613293  1
  Al  Al1  1  0.31392334  0.06187091  0.88776384  1
  Al  Al2  1  0.99655037  0.42515529  0.38956481  1
  Al  Al3  1  0.48669768  0.56741632  0.63902222  1
  Se  Se4  1  0.93895155  0.06537950  0.89382984  1
  Se  Se5  1  0.40569603  0.92726114  0.12927383  1
  Se  Se6  1  0.88126520  0.58308431  0.15247692  1
  Se  Se7  1  0.88159323  0.09353018  0.38469370  1
  Se  Se8  1  0.38724948  0.40519316  0.87731538  1
  Se  Se9  1  0.39225128  0.90205472  0.64161508  1
  Se  Se10  1  0.85532831  0.55579331  0.62730855  1
  Se  Se11  1  0.36047405  0.43413406  0.39819451  1
  Li  Li12  1  0.99912414  0.43044142  0.88990817  1
  Li  Li13  1  0.00080717  0.89188739  0.62470019  1
  Li  Li14  1  0.48844301  0.57663505  0.13250433  1
  Li  Li15  1  0.48701828  0.09089557  0.38676742  1
