# generated using pymatgen
data_LiAlSe2
_symmetry_space_group_name_H-M   'P 1'
_cell_length_a   6.91684001
_cell_length_b   8.35640132
_cell_length_c   6.61434662
_cell_angle_alpha   90.00050823
_cell_angle_beta   90.00100559
_cell_angle_gamma   90.00012708
_symmetry_Int_Tables_number   1
_chemical_formula_structural   LiAlSe2
_chemical_formula_sum   'Li4 Al4 Se8'
_cell_volume   382.30851306
_cell_formula_units_Z   4
loop_
 _symmetry_equiv_pos_site_id
 _symmetry_equiv_pos_as_xyz
  1  'x, y, z'
loop_
 _atom_site_type_symbol
 _atom_site_label
 _atom_site_symmetry_multiplicity
 _atom_site_fract_x
 _atom_site_fract_y
 _atom_site_fract_z
 _atom_site_occupancy
  Al  Al0  1  -0.92281624  0.13854034  -0.98779311  1
  Al  Al1  1  -0.06884092  0.88646364  -0.48779517  1
  Al  Al2  1  -0.42281684  0.38646288  -0.98779567  1
  Al  Al3  1  -0.56884373  0.63854023  -0.48779148  1
  Se  Se4  1  -0.05996078  0.89600451  -0.85388559  1
  Se  Se5  1  -0.93170464  0.12900280  -0.35388198  1
  Se  Se6  1  -0.59019522  0.14904201  -0.87418113  1
  Se  Se7  1  -0.09019621  0.37596237  -0.87418186  1
  Se  Se8  1  -0.40145896  0.87596114  -0.37418006  1
  Se  Se9  1  -0.90146190  0.64904281  -0.37417964  1
  Se  Se10  1  -0.55996124  0.62899682  -0.85388134  1
  Se  Se11  1  -0.43170888  0.39600020  -0.35388406  1
  Li  Li12  1  -0.40864116  0.89076536  -0.98413943  1
  Li  Li13  1  -0.90863132  0.63422562  -0.98413342  1
  Li  Li14  1  -0.58304610  0.13421824  -0.48414620  1
  Li  Li15  1  -0.08304920  0.39077102  -0.48415000  1
