# generated using pymatgen
data_LiAlSe2
_symmetry_space_group_name_H-M   'P 1'
_cell_length_a   6.97240361
_cell_length_b   8.47515947
_cell_length_c   6.61439942
_cell_angle_alpha   90.81331929
_cell_angle_beta   90.13051648
_cell_angle_gamma   90.25261017
_symmetry_Int_Tables_number   1
_chemical_formula_structural   LiAlSe2
_chemical_formula_sum   'Li4 Al4 Se8'
_cell_volume   390.81538064
_cell_formula_units_Z   4
loop_
 _symmetry_equiv_pos_site_id
 _symmetry_equiv_pos_as_xyz
  1  'x, y, z'
loop_
 _atom_site_type_symbol
 _atom_site_label
 _atom_site_symmetry_multiplicity
 _atom_site_fract_x
 _atom_site_fract_y
 _atom_site_fract_z
 _atom_site_occupancy
  Al  Al0  1  -0.92051987  0.14733734  -0.98162112  1
  Al  Al1  1  -0.06404375  0.88459378  -0.30737006  1
  Al  Al2  1  -0.42377243  0.38853271  -0.99471125  1
  Al  Al3  1  -0.56677953  0.63871884  -0.48755617  1
  Se  Se4  1  -0.06454700  0.89450681  -0.93424811  1
  Se  Se5  1  -0.92563369  0.13249047  -0.37974538  1
  Se  Se6  1  -0.58673745  0.15313172  -0.88004782  1
  Se  Se7  1  -0.09236168  0.38156776  -0.88007436  1
  Se  Se8  1  -0.40521044  0.87796511  -0.38739337  1
  Se  Se9  1  -0.90185684  0.64165419  -0.39254120  1
  Se  Se10  1  -0.55578631  0.62737958  -0.85541264  1
  Se  Se11  1  -0.43404894  0.39803953  -0.35977000  1
  Li  Li12  1  -0.42998523  0.89078375  -0.99800796  1
  Li  Li13  1  -0.89325140  0.62444365  -0.99965769  1
  Li  Li14  1  -0.57719805  0.13321804  -0.48923551  1
  Li  Li15  1  -0.09086893  0.38670842  -0.48816119  1
