# generated using pymatgen
data_LiAlSe2
_symmetry_space_group_name_H-M   'P 1'
_cell_length_a   6.94618686
_cell_length_b   8.40454174
_cell_length_c   6.61436306
_cell_angle_alpha   90.68941774
_cell_angle_beta   90.06750766
_cell_angle_gamma   90.10818675
_symmetry_Int_Tables_number   1
_chemical_formula_structural   LiAlSe2
_chemical_formula_sum   'Li4 Al4 Se8'
_cell_volume   386.11440322
_cell_formula_units_Z   4
loop_
 _symmetry_equiv_pos_site_id
 _symmetry_equiv_pos_as_xyz
  1  'x, y, z'
loop_
 _atom_site_type_symbol
 _atom_site_label
 _atom_site_symmetry_multiplicity
 _atom_site_fract_x
 _atom_site_fract_y
 _atom_site_fract_z
 _atom_site_occupancy
  Al  Al0  1  -0.92461179  0.13760781  -0.99496578  1
  Al  Al1  1  -0.07023331  0.87902756  -0.41362733  1
  Al  Al2  1  -0.42083603  0.38835363  -0.99078628  1
  Al  Al3  1  -0.56615111  0.63654668  -0.49269854  1
  Se  Se4  1  -0.05969185  0.89858267  -0.87096123  1
  Se  Se5  1  -0.92535610  0.13102573  -0.36344338  1
  Se  Se6  1  -0.59139868  0.15482685  -0.88229708  1
  Se  Se7  1  -0.08861706  0.37832829  -0.88424523  1
  Se  Se8  1  -0.41204708  0.87827064  -0.37152131  1
  Se  Se9  1  -0.89938558  0.63590073  -0.37677106  1
  Se  Se10  1  -0.55653035  0.63113870  -0.85674187  1
  Se  Se11  1  -0.43251675  0.39707456  -0.35826771  1
  Li  Li12  1  -0.40932612  0.89657809  -0.97879467  1
  Li  Li13  1  -0.90540893  0.63683006  -0.98308729  1
  Li  Li14  1  -0.57843361  0.13690733  -0.49838763  1
  Li  Li15  1  -0.09205718  0.38407238  -0.49895745  1
