# generated using pymatgen
data_LiAlSe2
_symmetry_space_group_name_H-M   'P 1'
_cell_length_a   6.61440436
_cell_length_b   6.98345353
_cell_length_c   8.48534915
_cell_angle_alpha   89.72871649
_cell_angle_beta   89.26979192
_cell_angle_gamma   90.10040900
_symmetry_Int_Tables_number   1
_chemical_formula_structural   LiAlSe2
_chemical_formula_sum   'Li4 Al4 Se8'
_cell_volume   391.91316590
_cell_formula_units_Z   4
loop_
 _symmetry_equiv_pos_site_id
 _symmetry_equiv_pos_as_xyz
  1  'x, y, z'
loop_
 _atom_site_type_symbol
 _atom_site_label
 _atom_site_symmetry_multiplicity
 _atom_site_fract_x
 _atom_site_fract_y
 _atom_site_fract_z
 _atom_site_occupancy
  Al  Al0  1  0.89790290  0.92323727  0.14464250  1
  Al  Al1  1  0.31794437  0.06104641  0.88904885  1
  Al  Al2  1  0.99705736  0.42559675  0.38995948  1
  Al  Al3  1  0.48665363  0.56754571  0.63908738  1
  Se  Se4  1  0.94442591  0.06501756  0.89462641  1
  Se  Se5  1  0.43237423  0.92881603  0.12656463  1
  Se  Se6  1  0.88346651  0.58130267  0.15226039  1
  Se  Se7  1  0.88416454  0.09376773  0.38623744  1
  Se  Se8  1  0.38725429  0.40529619  0.87713286  1
  Se  Se9  1  0.39224400  0.90200850  0.64168682  1
  Se  Se10  1  0.85539899  0.55585810  0.62736365  1
  Se  Se11  1  0.36077289  0.43416086  0.39834001  1
  Li  Li12  1  0.99939561  0.43058514  0.88964274  1
  Li  Li13  1  0.00112401  0.89143280  0.62476649  1
  Li  Li14  1  0.48852685  0.57575324  0.13238276  1
  Li  Li15  1  0.48684776  0.09117659  0.38732930  1
