# generated using pymatgen
data_LiAlSe2
_symmetry_space_group_name_H-M   'P 1'
_cell_length_a   6.61453489
_cell_length_b   6.95108110
_cell_length_c   8.41140315
_cell_angle_alpha   90.11201686
_cell_angle_beta   90.74357998
_cell_angle_gamma   90.09736785
_symmetry_Int_Tables_number   1
_chemical_formula_structural   LiAlSe2
_chemical_formula_sum   'Li4 Al4 Se8'
_cell_volume   386.70702846
_cell_formula_units_Z   4
loop_
 _symmetry_equiv_pos_site_id
 _symmetry_equiv_pos_as_xyz
  1  'x, y, z'
loop_
 _atom_site_type_symbol
 _atom_site_label
 _atom_site_symmetry_multiplicity
 _atom_site_fract_x
 _atom_site_fract_y
 _atom_site_fract_z
 _atom_site_occupancy
  Al  Al0  1  0.85891150  0.92598118  0.13633886  1
  Al  Al1  1  0.36109002  0.07086784  0.88827417  1
  Al  Al2  1  0.98125219  0.42122301  0.37824866  1
  Al  Al3  1  0.35270801  0.56798108  0.63929390  1
  Se  Se4  1  0.99353710  0.05904746  0.89711396  1
  Se  Se5  1  0.49493246  0.93536274  0.13099275  1
  Se  Se6  1  0.97218941  0.59255430  0.13456671  1
  Se  Se7  1  0.97809569  0.07802960  0.37873879  1
  Se  Se8  1  0.46728072  0.40302678  0.87829734  1
  Se  Se9  1  0.46918194  0.90000661  0.65511029  1
  Se  Se10  1  0.98331843  0.56694621  0.63209431  1
  Se  Se11  1  0.45720956  0.43153294  0.39819383  1
  Li  Li12  1  0.85246400  0.39886437  0.88405376  1
  Li  Li13  1  0.85307811  0.91327754  0.63715618  1
  Li  Li14  1  0.36771053  0.58728454  0.13573268  1
  Li  Li15  1  0.37259415  0.08061532  0.39686552  1
