# generated using pymatgen
data_LiAlSe2
_symmetry_space_group_name_H-M   'P 1'
_cell_length_a   6.95105887
_cell_length_b   8.41151215
_cell_length_c   6.61437283
_cell_angle_alpha   90.74492387
_cell_angle_beta   90.09144109
_cell_angle_gamma   90.11036594
_symmetry_Int_Tables_number   1
_chemical_formula_structural   LiAlSe2
_chemical_formula_sum   'Li4 Al4 Se8'
_cell_volume   386.70129895
_cell_formula_units_Z   4
loop_
 _symmetry_equiv_pos_site_id
 _symmetry_equiv_pos_as_xyz
  1  'x, y, z'
loop_
 _atom_site_type_symbol
 _atom_site_label
 _atom_site_symmetry_multiplicity
 _atom_site_fract_x
 _atom_site_fract_y
 _atom_site_fract_z
 _atom_site_occupancy
  Al  Al0  1  -0.92361985  0.13928620  -0.99924920  1
  Al  Al1  1  -0.07031358  0.87822250  -0.37078731  1
  Al  Al2  1  -0.42077556  0.38828929  -0.99087455  1
  Al  Al3  1  -0.56558972  0.63632577  -0.49302817  1
  Se  Se4  1  -0.06012921  0.89824593  -0.89462809  1
  Se  Se5  1  -0.92456711  0.13205308  -0.36864053  1
  Se  Se6  1  -0.59160214  0.15510853  -0.88281294  1
  Se  Se7  1  -0.08862802  0.37827001  -0.88466556  1
  Se  Se8  1  -0.41350274  0.87873852  -0.37394945  1
  Se  Se9  1  -0.89897153  0.63454158  -0.37955608  1
  Se  Se10  1  -0.55626183  0.63102095  -0.85702089  1
  Se  Se11  1  -0.43245653  0.39712314  -0.35843750  1
  Li  Li12  1  -0.41096934  0.89688525  -0.97959298  1
  Li  Li13  1  -0.90445463  0.63574118  -0.98386218  1
  Li  Li14  1  -0.57817498  0.13717015  -0.49893895  1
  Li  Li15  1  -0.09258476  0.38404964  -0.49950946  1
