# generated using pymatgen
data_LiAlSe2
_symmetry_space_group_name_H-M   'P 1'
_cell_length_a   6.97992215
_cell_length_b   8.48331107
_cell_length_c   6.61451364
_cell_angle_alpha   89.24274578
_cell_angle_beta   90.10975776
_cell_angle_gamma   89.73768134
_symmetry_Int_Tables_number   1
_chemical_formula_structural   LiAlSe2
_chemical_formula_sum   'Li4 Al4 Se8'
_cell_volume   391.62513296
_cell_formula_units_Z   4
loop_
 _symmetry_equiv_pos_site_id
 _symmetry_equiv_pos_as_xyz
  1  'x, y, z'
loop_
 _atom_site_type_symbol
 _atom_site_label
 _atom_site_symmetry_multiplicity
 _atom_site_fract_x
 _atom_site_fract_y
 _atom_site_fract_z
 _atom_site_occupancy
  Al  Al0  1  -0.92417052  0.13904669  -0.86522279  1
  Al  Al1  1  -0.06635705  0.88956281  -0.35534796  1
  Al  Al2  1  -0.42983453  0.38791405  -0.03761720  1
  Al  Al3  1  -0.56959941  0.64597279  -0.41446492  1
  Se  Se4  1  -0.05749371  0.89824431  -0.99147985  1
  Se  Se5  1  -0.93576590  0.12725866  -0.49658049  1
  Se  Se6  1  -0.58957700  0.14162777  -0.95979315  1
  Se  Se7  1  -0.08642189  0.37728632  -0.96462638  1
  Se  Se8  1  -0.39798712  0.88473506  -0.47017619  1
  Se  Se9  1  -0.90860906  0.65241277  -0.47061036  1
  Se  Se10  1  -0.56428541  0.62912682  -0.94448597  1
  Se  Se11  1  -0.42607896  0.39381678  -0.41259513  1
  Li  Li12  1  -0.40065775  0.88689825  -0.86484883  1
  Li  Li13  1  -0.91519462  0.63255752  -0.86361612  1
  Li  Li14  1  -0.59962258  0.12472091  -0.35133788  1
  Li  Li15  1  -0.06094602  0.38989021  -0.35275060  1
