# generated using pymatgen
data_LiAlSe2
_symmetry_space_group_name_H-M   'P 1'
_cell_length_a   6.93624570
_cell_length_b   8.39060418
_cell_length_c   6.61435339
_cell_angle_alpha   90.59941058
_cell_angle_beta   90.02896435
_cell_angle_gamma   90.09602750
_symmetry_Int_Tables_number   1
_chemical_formula_structural   LiAlSe2
_chemical_formula_sum   'Li4 Al4 Se8'
_cell_volume   384.92902654
_cell_formula_units_Z   4
loop_
 _symmetry_equiv_pos_site_id
 _symmetry_equiv_pos_as_xyz
  1  'x, y, z'
loop_
 _atom_site_type_symbol
 _atom_site_label
 _atom_site_symmetry_multiplicity
 _atom_site_fract_x
 _atom_site_fract_y
 _atom_site_fract_z
 _atom_site_occupancy
  Al  Al0  1  -0.92469885  0.13711642  -0.99068564  1
  Al  Al1  1  -0.06971396  0.88089101  -0.45697584  1
  Al  Al2  1  -0.42142707  0.38854945  -0.99138003  1
  Al  Al3  1  -0.56769134  0.63743369  -0.49101806  1
  Se  Se4  1  -0.05946611  0.89809412  -0.85049755  1
  Se  Se5  1  -0.92741410  0.12870190  -0.35750058  1
  Se  Se6  1  -0.59105207  0.15391423  -0.88077648  1
  Se  Se7  1  -0.08900600  0.37797248  -0.88273506  1
  Se  Se8  1  -0.40818808  0.87735478  -0.37052970  1
  Se  Se9  1  -0.90084469  0.63945654  -0.37519329  1
  Se  Se10  1  -0.55697693  0.63120951  -0.85616102  1
  Se  Se11  1  -0.43241572  0.39683888  -0.35805011  1
  Li  Li12  1  -0.40789657  0.89564387  -0.97862768  1
  Li  Li13  1  -0.90629615  0.63745382  -0.98277719  1
  Li  Li14  1  -0.57934193  0.13607436  -0.49600511  1
  Li  Li15  1  -0.09017197  0.38436664  -0.49664049  1
