# generated using pymatgen
data_LiAlSe2
_symmetry_space_group_name_H-M   'P 1'
_cell_length_a   6.93213867
_cell_length_b   8.56596082
_cell_length_c   6.61446200
_cell_angle_alpha   89.92289930
_cell_angle_beta   90.14131585
_cell_angle_gamma   90.02860062
_symmetry_Int_Tables_number   1
_chemical_formula_structural   LiAlSe2
_chemical_formula_sum   'Li4 Al4 Se8'
_cell_volume   392.76798795
_cell_formula_units_Z   4
loop_
 _symmetry_equiv_pos_site_id
 _symmetry_equiv_pos_as_xyz
  1  'x, y, z'
loop_
 _atom_site_type_symbol
 _atom_site_label
 _atom_site_symmetry_multiplicity
 _atom_site_fract_x
 _atom_site_fract_y
 _atom_site_fract_z
 _atom_site_occupancy
  Al  Al0  1  -0.92904803  0.13961078  -0.84359588  1
  Al  Al1  1  -0.06166779  0.88670540  -0.34176291  1
  Al  Al2  1  -0.42714229  0.38588748  -0.00328892  1
  Al  Al3  1  -0.56146810  0.63901334  -0.50522728  1
  Se  Se4  1  -0.05341578  0.89956632  -0.97542942  1
  Se  Se5  1  -0.93511880  0.12501672  -0.47668225  1
  Se  Se6  1  -0.58131669  0.14869135  -0.89784216  1
  Se  Se7  1  -0.07981582  0.37682733  -0.95458195  1
  Se  Se8  1  -0.40881379  0.87570693  -0.39644438  1
  Se  Se9  1  -0.90794630  0.65030710  -0.44814217  1
  Se  Se10  1  -0.55266074  0.62552150  -0.87117019  1
  Se  Se11  1  -0.44367093  0.39817120  -0.37027060  1
  Li  Li12  1  -0.42510445  0.88876850  -0.00491115  1
  Li  Li13  1  -0.92424061  0.63700870  -0.84042280  1
  Li  Li14  1  -0.56433419  0.13465703  -0.50781539  1
  Li  Li15  1  -0.07683722  0.38961203  -0.37796640  1
