# generated using pymatgen
data_LiAlSe2
_symmetry_space_group_name_H-M   'P 1'
_cell_length_a   6.94619011
_cell_length_b   8.40446324
_cell_length_c   6.61453669
_cell_angle_alpha   89.31128362
_cell_angle_beta   90.07327703
_cell_angle_gamma   89.89012047
_symmetry_Int_Tables_number   1
_chemical_formula_structural   LiAlSe2
_chemical_formula_sum   'Li4 Al4 Se8'
_cell_volume   386.12109972
_cell_formula_units_Z   4
loop_
 _symmetry_equiv_pos_site_id
 _symmetry_equiv_pos_as_xyz
  1  'x, y, z'
loop_
 _atom_site_type_symbol
 _atom_site_label
 _atom_site_symmetry_multiplicity
 _atom_site_fract_x
 _atom_site_fract_y
 _atom_site_fract_z
 _atom_site_occupancy
  Al  Al0  1  -0.92542716  0.13655738  -0.85924119  1
  Al  Al1  1  -0.07080944  0.88833706  -0.36118114  1
  Al  Al2  1  -0.42130000  0.37905335  -0.93841682  1
  Al  Al3  1  -0.56698441  0.63761132  -0.35699351  1
  Se  Se4  1  -0.05898849  0.89706447  -0.99370869  1
  Se  Se5  1  -0.93509698  0.13110988  -0.49521572  1
  Se  Se6  1  -0.59215124  0.13591190  -0.97499098  1
  Se  Se7  1  -0.07949115  0.37827292  -0.98052165  1
  Se  Se8  1  -0.40304002  0.87835816  -0.46769733  1
  Se  Se9  1  -0.90021013  0.65483003  -0.46969208  1
  Se  Se10  1  -0.56616209  0.63106696  -0.98851394  1
  Se  Se11  1  -0.43196413  0.39853983  -0.48088402  1
  Li  Li12  1  -0.39938852  0.88407657  -0.85299512  1
  Li  Li13  1  -0.91301698  0.63689538  -0.85360882  1
  Li  Li14  1  -0.58633093  0.13682688  -0.36850573  1
  Li  Li15  1  -0.08223986  0.39655962  -0.37338709  1
