# generated using pymatgen
data_LiAlSe2
_symmetry_space_group_name_H-M   'P 1'
_cell_length_a   6.61450435
_cell_length_b   6.98356910
_cell_length_c   8.48562051
_cell_angle_alpha   90.27308883
_cell_angle_beta   90.71335564
_cell_angle_gamma   90.09352835
_symmetry_Int_Tables_number   1
_chemical_formula_structural   LiAlSe2
_chemical_formula_sum   'Li4 Al4 Se8'
_cell_volume   391.93958659
_cell_formula_units_Z   4
loop_
 _symmetry_equiv_pos_site_id
 _symmetry_equiv_pos_as_xyz
  1  'x, y, z'
loop_
 _atom_site_type_symbol
 _atom_site_label
 _atom_site_symmetry_multiplicity
 _atom_site_fract_x
 _atom_site_fract_y
 _atom_site_fract_z
 _atom_site_occupancy
  Al  Al0  1  0.86518650  0.92408537  0.13908872  1
  Al  Al1  1  0.35497182  0.06598051  0.88990350  1
  Al  Al2  1  0.03366464  0.43056563  0.38907620  1
  Al  Al3  1  0.45674620  0.56819244  0.64440307  1
  Se  Se4  1  0.99122775  0.05746270  0.89839524  1
  Se  Se5  1  0.49648973  0.93568516  0.12732247  1
  Se  Se6  1  0.95976549  0.58965551  0.14171758  1
  Se  Se7  1  0.96459904  0.08630617  0.37712645  1
  Se  Se8  1  0.46755895  0.39782148  0.88617070  1
  Se  Se9  1  0.46838363  0.91027804  0.65220114  1
  Se  Se10  1  0.91795502  0.56274333  0.62649703  1
  Se  Se11  1  0.40699508  0.42651350  0.39468187  1
  Li  Li12  1  0.86493537  0.40032740  0.88756616  1
  Li  Li13  1  0.86345808  0.91613753  0.63248876  1
  Li  Li14  1  0.35107602  0.60001282  0.12477791  1
  Li  Li15  1  0.35254050  0.06083395  0.38965491  1
