# generated using pymatgen
data_LiAlSe2
_symmetry_space_group_name_H-M   'P 1'
_cell_length_a   6.95795464
_cell_length_b   8.56130162
_cell_length_c   6.61442670
_cell_angle_alpha   90.09690830
_cell_angle_beta   89.94862743
_cell_angle_gamma   90.07857675
_symmetry_Int_Tables_number   1
_chemical_formula_structural   LiAlSe2
_chemical_formula_sum   'Li4 Al4 Se8'
_cell_volume   394.01467384
_cell_formula_units_Z   4
loop_
 _symmetry_equiv_pos_site_id
 _symmetry_equiv_pos_as_xyz
  1  'x, y, z'
loop_
 _atom_site_type_symbol
 _atom_site_label
 _atom_site_symmetry_multiplicity
 _atom_site_fract_x
 _atom_site_fract_y
 _atom_site_fract_z
 _atom_site_occupancy
  Al  Al0  1  -0.92676480  0.13575853  -0.83305142  1
  Al  Al1  1  -0.06140031  0.88505682  -0.33741060  1
  Al  Al2  1  -0.42467630  0.38550133  -0.99658005  1
  Al  Al3  1  -0.56291654  0.63867412  -0.49662535  1
  Se  Se4  1  -0.05569466  0.89943651  -0.96988286  1
  Se  Se5  1  -0.93276094  0.12430183  -0.46524200  1
  Se  Se6  1  -0.58149252  0.14908227  -0.89118927  1
  Se  Se7  1  -0.08627489  0.37710248  -0.91060275  1
  Se  Se8  1  -0.40782803  0.87587641  -0.39129742  1
  Se  Se9  1  -0.90668719  0.64713609  -0.43721158  1
  Se  Se10  1  -0.54681475  0.62610742  -0.86334066  1
  Se  Se11  1  -0.43779134  0.39904977  -0.36282442  1
  Li  Li12  1  -0.42499659  0.89010073  -0.00043624  1
  Li  Li13  1  -0.91254035  0.63878984  -0.85714605  1
  Li  Li14  1  -0.56486647  0.13558010  -0.49907806  1
  Li  Li15  1  -0.09909586  0.39351745  -0.50363510  1
