# generated using pymatgen
data_LiAlSe2
_symmetry_space_group_name_H-M   'P 1'
_cell_length_a   6.96629289
_cell_length_b   8.56142578
_cell_length_c   6.61442126
_cell_angle_alpha   90.05036587
_cell_angle_beta   89.94391719
_cell_angle_gamma   90.05942514
_symmetry_Int_Tables_number   1
_chemical_formula_structural   LiAlSe2
_chemical_formula_sum   'Li4 Al4 Se8'
_cell_volume   394.49278783
_cell_formula_units_Z   4
loop_
 _symmetry_equiv_pos_site_id
 _symmetry_equiv_pos_as_xyz
  1  'x, y, z'
loop_
 _atom_site_type_symbol
 _atom_site_label
 _atom_site_symmetry_multiplicity
 _atom_site_fract_x
 _atom_site_fract_y
 _atom_site_fract_z
 _atom_site_occupancy
  Al  Al0  1  -0.92724049  0.13603740  -0.83050437  1
  Al  Al1  1  -0.06092028  0.88537060  -0.33499320  1
  Al  Al2  1  -0.42609124  0.38579223  -0.99577753  1
  Al  Al3  1  -0.56435569  0.63889741  -0.49391888  1
  Se  Se4  1  -0.05941807  0.90128450  -0.96665404  1
  Se  Se5  1  -0.93146068  0.12433241  -0.46285939  1
  Se  Se6  1  -0.58297914  0.14931447  -0.89085133  1
  Se  Se7  1  -0.08946463  0.37701797  -0.90407207  1
  Se  Se8  1  -0.40665380  0.87583722  -0.39153830  1
  Se  Se9  1  -0.90389541  0.64497927  -0.41831525  1
  Se  Se10  1  -0.54770831  0.62638497  -0.86104939  1
  Se  Se11  1  -0.43647619  0.39924933  -0.36179882  1
  Li  Li12  1  -0.42715052  0.89037958  -0.00096519  1
  Li  Li13  1  -0.90780391  0.63503787  -0.90299045  1
  Li  Li14  1  -0.56389090  0.13564326  -0.49851295  1
  Li  Li15  1  -0.09709227  0.39551321  -0.50075266  1
