# generated using pymatgen
data_LiAlSe2
_symmetry_space_group_name_H-M   'P 1'
_cell_length_a   6.93623054
_cell_length_b   8.39055086
_cell_length_c   6.61453840
_cell_angle_alpha   89.40094999
_cell_angle_beta   90.03436877
_cell_angle_gamma   89.90199996
_symmetry_Int_Tables_number   1
_chemical_formula_structural   LiAlSe2
_chemical_formula_sum   'Li4 Al4 Se8'
_cell_volume   384.93648745
_cell_formula_units_Z   4
loop_
 _symmetry_equiv_pos_site_id
 _symmetry_equiv_pos_as_xyz
  1  'x, y, z'
loop_
 _atom_site_type_symbol
 _atom_site_label
 _atom_site_symmetry_multiplicity
 _atom_site_fract_x
 _atom_site_fract_y
 _atom_site_fract_z
 _atom_site_occupancy
  Al  Al0  1  -0.92389157  0.13744110  -0.86093270  1
  Al  Al1  1  -0.07021143  0.88853223  -0.36059291  1
  Al  Al2  1  -0.42181954  0.38091211  -0.89507240  1
  Al  Al3  1  -0.56688277  0.63711097  -0.36127320  1
  Se  Se4  1  -0.05908912  0.89682698  -0.99393191  1
  Se  Se5  1  -0.93465461  0.13118166  -0.49580837  1
  Se  Se6  1  -0.59070126  0.13944494  -0.97661070  1
  Se  Se7  1  -0.08334912  0.37736462  -0.98151459  1
  Se  Se8  1  -0.40264719  0.87800171  -0.46918674  1
  Se  Se9  1  -0.90054728  0.65391577  -0.47119202  1
  Se  Se10  1  -0.56410732  0.62874614  -0.99445839  1
  Se  Se11  1  -0.43218500  0.39805745  -0.50141479  1
  Li  Li12  1  -0.40125587  0.88437373  -0.85522877  1
  Li  Li13  1  -0.91211198  0.63607283  -0.85591537  1
  Li  Li14  1  -0.58544846  0.13745440  -0.36887065  1
  Li  Li15  1  -0.08369900  0.39563505  -0.37355033  1
