# generated using pymatgen
data_LiAlSe2
_symmetry_space_group_name_H-M   'P 1'
_cell_length_a   6.61448326
_cell_length_b   6.96571014
_cell_length_c   8.55311274
_cell_angle_alpha   90.07163167
_cell_angle_beta   90.03178994
_cell_angle_gamma   89.92510737
_symmetry_Int_Tables_number   1
_chemical_formula_structural   LiAlSe2
_chemical_formula_sum   'Li4 Al4 Se8'
_cell_volume   394.08031349
_cell_formula_units_Z   4
loop_
 _symmetry_equiv_pos_site_id
 _symmetry_equiv_pos_as_xyz
  1  'x, y, z'
loop_
 _atom_site_type_symbol
 _atom_site_label
 _atom_site_symmetry_multiplicity
 _atom_site_fract_x
 _atom_site_fract_y
 _atom_site_fract_z
 _atom_site_occupancy
  Al  Al0  1  0.86024237  0.92606006  0.13848533  1
  Al  Al1  1  0.35774532  0.06523613  0.88627590  1
  Al  Al2  1  0.01953062  0.43016211  0.38595241  1
  Al  Al3  1  0.52249971  0.56382367  0.63673837  1
  Se  Se4  1  0.99156467  0.05616475  0.89915787  1
  Se  Se5  1  0.49318583  0.94057407  0.12631007  1
  Se  Se6  1  0.95404207  0.59021186  0.14270651  1
  Se  Se7  1  0.96082806  0.08502038  0.37570361  1
  Se  Se8  1  0.45278504  0.40110962  0.87867404  1
  Se  Se9  1  0.46153472  0.90797382  0.64935827  1
  Se  Se10  1  0.89029391  0.56054025  0.62428634  1
  Se  Se11  1  0.38830142  0.43020832  0.40204889  1
  Li  Li12  1  0.85235856  0.39576221  0.89718011  1
  Li  Li13  1  0.85387553  0.92797310  0.63564200  1
  Li  Li14  1  0.40494269  0.58829273  0.13250456  1
  Li  Li15  1  0.35182332  0.06348846  0.39004744  1
