# generated using pymatgen
data_LiAlSe2
_symmetry_space_group_name_H-M   'P 1'
_cell_length_a   6.95540367
_cell_length_b   8.41823350
_cell_length_c   6.61438172
_cell_angle_alpha   90.79507920
_cell_angle_beta   90.10621620
_cell_angle_gamma   90.11666931
_symmetry_Int_Tables_number   1
_chemical_formula_structural   LiAlSe2
_chemical_formula_sum   'Li4 Al4 Se8'
_cell_volume   387.24790460
_cell_formula_units_Z   4
loop_
 _symmetry_equiv_pos_site_id
 _symmetry_equiv_pos_as_xyz
  1  'x, y, z'
loop_
 _atom_site_type_symbol
 _atom_site_label
 _atom_site_symmetry_multiplicity
 _atom_site_fract_x
 _atom_site_fract_y
 _atom_site_fract_z
 _atom_site_occupancy
  Al  Al0  1  -0.92102542  0.14344499  -0.00539591  1
  Al  Al1  1  -0.06977663  0.87812179  -0.32943630  1
  Al  Al2  1  -0.42104140  0.38845514  -0.99189559  1
  Al  Al3  1  -0.56583887  0.63689205  -0.49130864  1
  Se  Se4  1  -0.06072603  0.89725801  -0.91912869  1
  Se  Se5  1  -0.92494458  0.13175872  -0.37327027  1
  Se  Se6  1  -0.59188433  0.15538799  -0.88261885  1
  Se  Se7  1  -0.08918446  0.37770483  -0.88414941  1
  Se  Se8  1  -0.41282807  0.87906360  -0.37674112  1
  Se  Se9  1  -0.89967099  0.63471692  -0.38282364  1
  Se  Se10  1  -0.55574279  0.63064429  -0.85652865  1
  Se  Se11  1  -0.43210759  0.39707613  -0.35875894  1
  Li  Li12  1  -0.41538835  0.89677095  -0.98130330  1
  Li  Li13  1  -0.90200912  0.63244985  -0.98532716  1
  Li  Li14  1  -0.57810229  0.13699118  -0.49812429  1
  Li  Li15  1  -0.09233060  0.38433525  -0.49874307  1
