# generated using pymatgen
data_Mg2SbN3
_symmetry_space_group_name_H-M   'P 1'
_cell_length_a   10.42740679
_cell_length_b   5.99558724
_cell_length_c   5.43017500
_cell_angle_alpha   89.93372020
_cell_angle_beta   89.92010317
_cell_angle_gamma   89.94334554
_symmetry_Int_Tables_number   1
_chemical_formula_structural   Mg2SbN3
_chemical_formula_sum   'Mg8 Sb4 N12'
_cell_volume   339.48527693
_cell_formula_units_Z   4
loop_
 _symmetry_equiv_pos_site_id
 _symmetry_equiv_pos_as_xyz
  1  'x, y, z'
loop_
 _atom_site_type_symbol
 _atom_site_label
 _atom_site_symmetry_multiplicity
 _atom_site_fract_x
 _atom_site_fract_y
 _atom_site_fract_z
 _atom_site_occupancy
  Mg  Mg0  1  -0.82364755  0.15263363  0.99025829  1
  Mg  Mg1  1  -0.17720284  0.15087445  0.99900677  1
  Mg  Mg2  1  -0.17709707  0.83270008  0.49836155  1
  Mg  Mg3  1  -0.82374497  0.83176475  0.49542973  1
  Mg  Mg4  1  -0.33127534  0.65220289  0.00609482  1
  Mg  Mg5  1  -0.66876482  0.65330119  0.00520175  1
  Mg  Mg6  1  -0.66838199  0.33260090  0.50413216  1
  Mg  Mg7  1  -0.33056289  0.33206162  0.50582274  1
  Sb  Sb8  1  -0.00030490  0.66475482  0.88243490  1
  Sb  Sb9  1  -0.99980533  0.31901591  0.38236709  1
  Sb  Sb10  1  -0.49988673  0.16768775  0.99726624  1
  Sb  Sb11  1  -0.50000321  0.81763084  0.49745680  1
  N  N12  1  -0.16734307  0.82113857  0.89885059  1
  N  N13  1  -0.83337027  0.82085772  0.89839093  1
  N  N14  1  -0.00004399  0.34305291  0.99789327  1
  N  N15  1  -0.83283976  0.16318189  0.40144138  1
  N  N16  1  -0.16674532  0.16252699  0.39863934  1
  N  N17  1  -0.00045968  0.64085045  0.49708121  1
  N  N18  1  -0.65840473  0.32141691  0.89032139  1
  N  N19  1  -0.34089035  0.32029548  0.89137549  1
  N  N20  1  -0.65863355  0.66497491  0.39061026  1
  N  N21  1  -0.34107741  0.66437131  0.39163765  1
  N  N22  1  -0.50001068  0.83907801  0.87923384  1
  N  N23  1  -0.49950361  0.14636428  0.37906804  1
