# generated using pymatgen
data_Mg2SbN3
_symmetry_space_group_name_H-M   'P 1'
_cell_length_a   5.43170822
_cell_length_b   5.99704213
_cell_length_c   10.43381385
_cell_angle_alpha   90.08168505
_cell_angle_beta   90.05263634
_cell_angle_gamma   90.01573256
_symmetry_Int_Tables_number   1
_chemical_formula_structural   Mg2SbN3
_chemical_formula_sum   'Mg8 Sb4 N12'
_cell_volume   339.87246042
_cell_formula_units_Z   4
loop_
 _symmetry_equiv_pos_site_id
 _symmetry_equiv_pos_as_xyz
  1  'x, y, z'
loop_
 _atom_site_type_symbol
 _atom_site_label
 _atom_site_symmetry_multiplicity
 _atom_site_fract_x
 _atom_site_fract_y
 _atom_site_fract_z
 _atom_site_occupancy
  Mg  Mg0  1  0.95453438  0.15538881  0.82651280  1
  Mg  Mg1  1  0.99877286  0.15050170  0.17702453  1
  Mg  Mg2  1  0.49692063  0.83302294  0.17703021  1
  Mg  Mg3  1  0.49080838  0.82898053  0.82447437  1
  Mg  Mg4  1  0.00573713  0.65218158  0.33118407  1
  Mg  Mg5  1  0.00560807  0.65396974  0.66835696  1
  Mg  Mg6  1  0.50312647  0.33413783  0.66688208  1
  Mg  Mg7  1  0.50574080  0.33227367  0.33031244  1
  Sb  Sb8  1  0.88082686  0.66352845  0.00054746  1
  Sb  Sb9  1  0.38215211  0.31796385  0.99947369  1
  Sb  Sb10  1  0.99791940  0.16783399  0.49953038  1
  Sb  Sb11  1  0.49766953  0.81821609  0.49974258  1
  N  N12  1  0.89790533  0.82051872  0.16725943  1
  N  N13  1  0.90089534  0.81823237  0.83373582  1
  N  N14  1  0.99669898  0.34113968  0.99925442  1
  N  N15  1  0.42940561  0.16504117  0.83446774  1
  N  N16  1  0.39696411  0.16287704  0.16684334  1
  N  N17  1  0.49507350  0.64087702  0.00108882  1
  N  N18  1  0.89104150  0.32267398  0.65735500  1
  N  N19  1  0.89126469  0.32000955  0.34064117  1
  N  N20  1  0.39042512  0.66548731  0.65809248  1
  N  N21  1  0.39128620  0.66448778  0.34113774  1
  N  N22  1  0.87935418  0.83936695  0.49989972  1
  N  N23  1  0.37943623  0.14667711  0.49915272  1
