# generated using pymatgen
data_Mg2SbN3
_symmetry_space_group_name_H-M   'P 1'
_cell_length_a   10.42270966
_cell_length_b   5.98358916
_cell_length_c   5.42787699
_cell_angle_alpha   90.09135551
_cell_angle_beta   89.99988845
_cell_angle_gamma   89.99999397
_symmetry_Int_Tables_number   1
_chemical_formula_structural   Mg2SbN3
_chemical_formula_sum   'Mg8 Sb4 N12'
_cell_volume   338.51027186
_cell_formula_units_Z   4
loop_
 _symmetry_equiv_pos_site_id
 _symmetry_equiv_pos_as_xyz
  1  'x, y, z'
loop_
 _atom_site_type_symbol
 _atom_site_label
 _atom_site_symmetry_multiplicity
 _atom_site_fract_x
 _atom_site_fract_y
 _atom_site_fract_z
 _atom_site_occupancy
  Mg  Mg0  1  -0.82672337  0.15544588  0.99835906  1
  Mg  Mg1  1  -0.17327664  0.15544594  0.99835911  1
  Mg  Mg2  1  -0.17706669  0.83127070  0.49558862  1
  Mg  Mg3  1  -0.82293332  0.83127075  0.49558857  1
  Mg  Mg4  1  -0.33057908  0.65332962  0.00459209  1
  Mg  Mg5  1  -0.66942095  0.65332966  0.00459212  1
  Mg  Mg6  1  -0.66810771  0.33250821  0.50622927  1
  Mg  Mg7  1  -0.33189233  0.33250822  0.50622923  1
  Sb  Sb8  1  -0.00000008  0.66455040  0.88331383  1
  Sb  Sb9  1  -0.00000011  0.31385352  0.42095232  1
  Sb  Sb10  1  -0.49999999  0.16782259  0.99731419  1
  Sb  Sb11  1  -0.49999999  0.81752762  0.49764023  1
  N  N12  1  -0.16695811  0.82323972  0.89608019  1
  N  N13  1  -0.83304185  0.82323969  0.89608021  1
  N  N14  1  -0.99999996  0.33344238  0.95247528  1
  N  N15  1  -0.83269073  0.16375161  0.39525116  1
  N  N16  1  -0.16730914  0.16375165  0.39525112  1
  N  N17  1  -0.99999995  0.64665832  0.48688756  1
  N  N18  1  -0.65950173  0.31970272  0.89188319  1
  N  N19  1  -0.34049828  0.31970267  0.89188318  1
  N  N20  1  -0.65862349  0.66415827  0.39037502  1
  N  N21  1  -0.34137648  0.66415830  0.39037503  1
  N  N22  1  -0.50000002  0.83828397  0.87928894  1
  N  N23  1  -0.50000001  0.14643219  0.37946739  1
