# generated using pymatgen
data_Mg2SbN3
_symmetry_space_group_name_H-M   'P 1'
_cell_length_a   10.41998573
_cell_length_b   5.99510898
_cell_length_c   5.43631525
_cell_angle_alpha   90.02398833
_cell_angle_beta   89.94878139
_cell_angle_gamma   89.94901804
_symmetry_Int_Tables_number   1
_chemical_formula_structural   Mg2SbN3
_chemical_formula_sum   'Mg8 Sb4 N12'
_cell_volume   339.60060552
_cell_formula_units_Z   4
loop_
 _symmetry_equiv_pos_site_id
 _symmetry_equiv_pos_as_xyz
  1  'x, y, z'
loop_
 _atom_site_type_symbol
 _atom_site_label
 _atom_site_symmetry_multiplicity
 _atom_site_fract_x
 _atom_site_fract_y
 _atom_site_fract_z
 _atom_site_occupancy
  Mg  Mg0  1  -0.83214559  0.15730547  0.88409256  1
  Mg  Mg1  1  -0.17641356  0.14912499  0.00053116  1
  Mg  Mg2  1  -0.17656412  0.83319454  0.49928250  1
  Mg  Mg3  1  -0.82889450  0.82933287  0.43244943  1
  Mg  Mg4  1  -0.33061971  0.65133978  0.00619454  1
  Mg  Mg5  1  -0.66692776  0.65285472  0.00396614  1
  Mg  Mg6  1  -0.66488981  0.33480997  0.50140993  1
  Mg  Mg7  1  -0.32955949  0.33187555  0.50637691  1
  Sb  Sb8  1  -0.99883316  0.66472268  0.88334256  1
  Sb  Sb9  1  -0.99809895  0.31787107  0.38206655  1
  Sb  Sb10  1  -0.49946691  0.16729523  0.99815616  1
  Sb  Sb11  1  -0.49915263  0.81805410  0.49878359  1
  N  N12  1  -0.16676276  0.81921976  0.89775716  1
  N  N13  1  -0.83697347  0.82100094  0.95273148  1
  N  N14  1  -0.99693366  0.34034979  0.00029229  1
  N  N15  1  -0.83977783  0.16732706  0.49005414  1
  N  N16  1  -0.16578612  0.16306360  0.39721306  1
  N  N17  1  -0.99917477  0.64132065  0.49856338  1
  N  N18  1  -0.65692753  0.32254887  0.89235405  1
  N  N19  1  -0.33997224  0.31896397  0.89167238  1
  N  N20  1  -0.65722400  0.66473649  0.39145772  1
  N  N21  1  -0.34057509  0.66416094  0.39155005  1
  N  N22  1  -0.49940616  0.83884025  0.87970776  1
  N  N23  1  -0.49892014  0.14607461  0.37956191  1
