# generated using pymatgen
data_Mg2SbN3
_symmetry_space_group_name_H-M   'P 1'
_cell_length_a   10.40468518
_cell_length_b   5.96825038
_cell_length_c   5.44706300
_cell_angle_alpha   90.00041792
_cell_angle_beta   89.99993955
_cell_angle_gamma   90.00004024
_symmetry_Int_Tables_number   1
_chemical_formula_structural   Mg2SbN3
_chemical_formula_sum   'Mg8 Sb4 N12'
_cell_volume   338.25044542
_cell_formula_units_Z   4
loop_
 _symmetry_equiv_pos_site_id
 _symmetry_equiv_pos_as_xyz
  1  'x, y, z'
loop_
 _atom_site_type_symbol
 _atom_site_label
 _atom_site_symmetry_multiplicity
 _atom_site_fract_x
 _atom_site_fract_y
 _atom_site_fract_z
 _atom_site_occupancy
  Mg  Mg0  1  -0.83312904  0.15050072  0.88704108  1
  Mg  Mg1  1  -0.16687276  0.15050516  0.88699668  1
  Mg  Mg2  1  -0.16687216  0.83411838  0.38702556  1
  Mg  Mg3  1  -0.83312600  0.83409914  0.38704004  1
  Mg  Mg4  1  -0.33312217  0.65051414  0.00648517  1
  Mg  Mg5  1  -0.66687236  0.65050462  0.00649072  1
  Mg  Mg6  1  -0.66687633  0.33410187  0.50649258  1
  Mg  Mg7  1  -0.33312660  0.33411389  0.50648138  1
  Sb  Sb8  1  -1.00000143  0.66651908  0.88999727  1
  Sb  Sb9  1  -1.00000137  0.31808991  0.38999417  1
  Sb  Sb10  1  -0.49999867  0.16652612  0.00352622  1
  Sb  Sb11  1  -0.49999831  0.81809286  0.50352686  1
  N  N12  1  -0.15860411  0.81946743  0.99684732  1
  N  N13  1  -0.84139341  0.81944789  0.99685349  1
  N  N14  1  -0.00000613  0.33773795  0.00981057  1
  N  N15  1  -0.84139660  0.16515265  0.49685254  1
  N  N16  1  -0.15860590  0.16516106  0.49686091  1
  N  N17  1  -0.00000248  0.64687008  0.50981137  1
  N  N18  1  -0.65860934  0.31945105  0.89667831  1
  N  N19  1  -0.34139236  0.31946140  0.89667073  1
  N  N20  1  -0.65860484  0.66515371  0.39667766  1
  N  N21  1  -0.34138968  0.66516529  0.39667121  1
  N  N22  1  -0.49999795  0.83774376  0.88371282  1
  N  N23  1  -0.49999987  0.14687382  0.38371240  1
