# generated using pymatgen
data_Mg2SbN3
_symmetry_space_group_name_H-M   'P 1'
_cell_length_a   5.42864362
_cell_length_b   5.98331304
_cell_length_c   10.42494287
_cell_angle_alpha   90.00000503
_cell_angle_beta   90.00025879
_cell_angle_gamma   90.08388977
_symmetry_Int_Tables_number   1
_chemical_formula_structural   Mg2SbN3
_chemical_formula_sum   'Mg8 Sb4 N12'
_cell_volume   338.61506488
_cell_formula_units_Z   4
loop_
 _symmetry_equiv_pos_site_id
 _symmetry_equiv_pos_as_xyz
  1  'x, y, z'
loop_
 _atom_site_type_symbol
 _atom_site_label
 _atom_site_symmetry_multiplicity
 _atom_site_fract_x
 _atom_site_fract_y
 _atom_site_fract_z
 _atom_site_occupancy
  Mg  Mg0  1  0.99762176  0.15468483  0.82594316  1
  Mg  Mg1  1  0.99762201  0.15468501  0.17405688  1
  Mg  Mg2  1  0.49588374  0.83155704  0.17709135  1
  Mg  Mg3  1  0.49588350  0.83155721  0.82290866  1
  Mg  Mg4  1  0.00468290  0.65330349  0.33062198  1
  Mg  Mg5  1  0.00468298  0.65330356  0.66937809  1
  Mg  Mg6  1  0.50618652  0.33241626  0.66820293  1
  Mg  Mg7  1  0.50618642  0.33241631  0.33179715  1
  Sb  Sb8  1  0.88243185  0.66426524  0.00000063  1
  Sb  Sb9  1  0.40394580  0.31576783  0.00000080  1
  Sb  Sb10  1  0.99740637  0.16783061  0.49999964  1
  Sb  Sb11  1  0.49758282  0.81749762  0.49999960  1
  N  N12  1  0.89622912  0.82281258  0.16686731  1
  N  N13  1  0.89622915  0.82281281  0.83313220  1
  N  N14  1  0.96745665  0.33534978  0.99999986  1
  N  N15  1  0.39605539  0.16345933  0.83254172  1
  N  N16  1  0.39605535  0.16345974  0.16745754  1
  N  N17  1  0.48882037  0.64549391  0.99999987  1
  N  N18  1  0.89177240  0.31980732  0.65939707  1
  N  N19  1  0.89177257  0.31980702  0.34060318  1
  N  N20  1  0.39040870  0.66417094  0.65863849  1
  N  N21  1  0.39040894  0.66417128  0.34136176  1
  N  N22  1  0.87927437  0.83831359  0.50000007  1
  N  N23  1  0.37945723  0.14644128  0.50000006  1
