# generated using pymatgen
data_Mg2SbN3
_symmetry_space_group_name_H-M   'P 1'
_cell_length_a   10.33419213
_cell_length_b   5.94396239
_cell_length_c   5.41251392
_cell_angle_alpha   89.99999885
_cell_angle_beta   90.00000016
_cell_angle_gamma   90.00000019
_symmetry_Int_Tables_number   1
_chemical_formula_structural   Mg2SbN3
_chemical_formula_sum   'Mg8 Sb4 N12'
_cell_volume   332.46934709
_cell_formula_units_Z   4
loop_
 _symmetry_equiv_pos_site_id
 _symmetry_equiv_pos_as_xyz
  1  'x, y, z'
loop_
 _atom_site_type_symbol
 _atom_site_label
 _atom_site_symmetry_multiplicity
 _atom_site_fract_x
 _atom_site_fract_y
 _atom_site_fract_z
 _atom_site_occupancy
  Mg  Mg0  1  -0.82963560  0.15420902  0.97694313  1
  Mg  Mg1  1  -0.17036440  0.15420901  0.97694311  1
  Mg  Mg2  1  -0.17036441  0.83040640  0.47694311  1
  Mg  Mg3  1  -0.82963559  0.83040639  0.47694312  1
  Mg  Mg4  1  -0.32963558  0.65420899  0.97694311  1
  Mg  Mg5  1  -0.67036440  0.65420898  0.97694313  1
  Mg  Mg6  1  -0.67036441  0.33040636  0.47694313  1
  Mg  Mg7  1  -0.32963560  0.33040637  0.47694310  1
  Sb  Sb8  1  -0.99999996  0.66808901  0.97001095  1
  Sb  Sb9  1  -0.99999997  0.31652644  0.47001097  1
  Sb  Sb10  1  -0.50000003  0.16808896  0.97001094  1
  Sb  Sb11  1  -0.50000003  0.81652639  0.47001097  1
  N  N12  1  -0.16157581  0.81864266  0.86453901  1
  N  N13  1  -0.83842421  0.81864262  0.86453906  1
  N  N14  1  -0.00000000  0.33705145  0.85256331  1
  N  N15  1  -0.83842424  0.16597277  0.36453906  1
  N  N16  1  -0.16157579  0.16597276  0.36453901  1
  N  N17  1  -1.00000000  0.64756400  0.35256324  1
  N  N18  1  -0.66157579  0.31864260  0.86453906  1
  N  N19  1  -0.33842419  0.31864262  0.86453901  1
  N  N20  1  -0.66157578  0.66597273  0.36453906  1
  N  N21  1  -0.33842421  0.66597273  0.36453901  1
  N  N22  1  -0.50000000  0.83705141  0.85256330  1
  N  N23  1  -0.50000000  0.14756394  0.35256324  1
