# generated using pymatgen
data_Mg2SbN3
_symmetry_space_group_name_H-M   'P 1'
_cell_length_a   10.37265180
_cell_length_b   5.96556309
_cell_length_c   5.42019859
_cell_angle_alpha   90.09669498
_cell_angle_beta   90.00038956
_cell_angle_gamma   90.00004552
_symmetry_Int_Tables_number   1
_chemical_formula_structural   Mg2SbN3
_chemical_formula_sum   'Mg8 Sb4 N12'
_cell_volume   335.39441237
_cell_formula_units_Z   4
loop_
 _symmetry_equiv_pos_site_id
 _symmetry_equiv_pos_as_xyz
  1  'x, y, z'
loop_
 _atom_site_type_symbol
 _atom_site_label
 _atom_site_symmetry_multiplicity
 _atom_site_fract_x
 _atom_site_fract_y
 _atom_site_fract_z
 _atom_site_occupancy
  Mg  Mg0  1  -0.82879836  -0.15715234  0.00621089  1
  Mg  Mg1  1  -0.17120137  -0.15715235  0.00621068  1
  Mg  Mg2  1  -0.17259690  -0.82953469  0.49470278  1
  Mg  Mg3  1  -0.82740301  -0.82953458  0.49470290  1
  Mg  Mg4  1  -0.33155678  -0.65279314  0.00442930  1
  Mg  Mg5  1  -0.66844302  -0.65279318  0.00442904  1
  Mg  Mg6  1  -0.67022696  -0.33030891  0.50464760  1
  Mg  Mg7  1  -0.32977299  -0.33030879  0.50464782  1
  Sb  Sb8  1  -1.00000051  -0.67012741  0.96051159  1
  Sb  Sb9  1  -0.99999944  -0.31406483  0.49355349  1
  Sb  Sb10  1  -0.50000062  -0.16763327  0.99731354  1
  Sb  Sb11  1  -0.50000070  -0.81674562  0.49710191  1
  N  N12  1  -0.16556020  -0.82238799  0.89158499  1
  N  N13  1  -0.83443945  -0.82238862  0.89158486  1
  N  N14  1  0.00000001  -0.33098742  0.88047878  1
  N  N15  1  -0.83729826  -0.16572000  0.39164576  1
  N  N16  1  -0.16270234  -0.16571987  0.39164543  1
  N  N17  1  0.00000003  -0.64884500  0.41499260  1
  N  N18  1  -0.66073791  -0.31892923  0.89195370  1
  N  N19  1  -0.33926177  -0.31892981  0.89195335  1
  N  N20  1  -0.65978117  -0.66436844  0.39054656  1
  N  N21  1  -0.34021832  -0.66436769  0.39054621  1
  N  N22  1  -0.50000001  -0.83785931  0.87911073  1
  N  N23  1  -0.49999995  -0.14673211  0.37955239  1
