# generated using pymatgen
data_Mg2SbN3
_symmetry_space_group_name_H-M   'P 1'
_cell_length_a   5.43094041
_cell_length_b   5.99484920
_cell_length_c   10.43285310
_cell_angle_alpha   90.06300777
_cell_angle_beta   90.04942299
_cell_angle_gamma   90.01454088
_symmetry_Int_Tables_number   1
_chemical_formula_structural   Mg2SbN3
_chemical_formula_sum   'Mg8 Sb4 N12'
_cell_volume   339.66903297
_cell_formula_units_Z   4
loop_
 _symmetry_equiv_pos_site_id
 _symmetry_equiv_pos_as_xyz
  1  'x, y, z'
loop_
 _atom_site_type_symbol
 _atom_site_label
 _atom_site_symmetry_multiplicity
 _atom_site_fract_x
 _atom_site_fract_y
 _atom_site_fract_z
 _atom_site_occupancy
  Mg  Mg0  1  0.97253523  0.15418947  0.82530281  1
  Mg  Mg1  1  0.99828917  0.15073797  0.17702818  1
  Mg  Mg2  1  0.49695825  0.83293326  0.17706078  1
  Mg  Mg3  1  0.49249669  0.83016113  0.82413076  1
  Mg  Mg4  1  0.00565448  0.65230287  0.33116404  1
  Mg  Mg5  1  0.00532359  0.65375177  0.66853105  1
  Mg  Mg6  1  0.50362239  0.33348222  0.66752735  1
  Mg  Mg7  1  0.50567640  0.33227717  0.33047673  1
  Sb  Sb8  1  0.88081004  0.66385948  0.00046314  1
  Sb  Sb9  1  0.38178615  0.31837508  0.99968950  1
  Sb  Sb10  1  0.99766796  0.16785961  0.49967381  1
  Sb  Sb11  1  0.49752336  0.81804928  0.49982855  1
  N  N12  1  0.89775899  0.82071276  0.16724727  1
  N  N13  1  0.89919318  0.81921903  0.83359289  1
  N  N14  1  0.99593511  0.34156122  0.99968781  1
  N  N15  1  0.41419793  0.16416376  0.83359523  1
  N  N16  1  0.39713548  0.16286838  0.16690272  1
  N  N17  1  0.49500126  0.64109818  0.00084544  1
  N  N18  1  0.89064330  0.32204057  0.65784077  1
  N  N19  1  0.89119485  0.32009460  0.34075625  1
  N  N20  1  0.39038758  0.66526630  0.65827326  1
  N  N21  1  0.39119933  0.66448883  0.34115347  1
  N  N22  1  0.87927338  0.83922406  0.49992115  1
  N  N23  1  0.37930332  0.14667086  0.49930700  1
