# generated using pymatgen
data_Mg2SbN3
_symmetry_space_group_name_H-M   'P 1'
_cell_length_a   5.42557438
_cell_length_b   5.98383807
_cell_length_c   10.41432160
_cell_angle_alpha   90.00000524
_cell_angle_beta   89.99972784
_cell_angle_gamma   90.09634509
_symmetry_Int_Tables_number   1
_chemical_formula_structural   Mg2SbN3
_chemical_formula_sum   'Mg8 Sb4 N12'
_cell_volume   338.10837232
_cell_formula_units_Z   4
loop_
 _symmetry_equiv_pos_site_id
 _symmetry_equiv_pos_as_xyz
  1  'x, y, z'
loop_
 _atom_site_type_symbol
 _atom_site_label
 _atom_site_symmetry_multiplicity
 _atom_site_fract_x
 _atom_site_fract_y
 _atom_site_fract_z
 _atom_site_occupancy
  Mg  Mg0  1  0.00144865  0.15642123  0.82790706  1
  Mg  Mg1  1  0.00144848  0.15642110  0.17209285  1
  Mg  Mg2  1  0.49375831  0.83122013  0.17675359  1
  Mg  Mg3  1  0.49375845  0.83121995  0.82324649  1
  Mg  Mg4  1  0.00455895  0.65321509  0.33076197  1
  Mg  Mg5  1  0.00455879  0.65321509  0.66923786  1
  Mg  Mg6  1  0.50580810  0.33235640  0.66837339  1
  Mg  Mg7  1  0.50580828  0.33235638  0.33162648  1
  Sb  Sb8  1  0.88382674  0.66747505  0.00000008  1
  Sb  Sb9  1  0.47220815  0.30889052  0.00000011  1
  Sb  Sb10  1  0.99719515  0.16785027  0.49999979  1
  Sb  Sb11  1  0.49760864  0.81761759  0.49999978  1
  N  N12  1  0.89611076  0.82384654  0.16730960  1
  N  N13  1  0.89611086  0.82384694  0.83269019  1
  N  N14  1  0.90901271  0.32772997  -0.00000001  1
  N  N15  1  0.39235796  0.16549828  0.83420386  1
  N  N16  1  0.39235788  0.16549842  0.16579615  1
  N  N17  1  0.48281887  0.64855773  0.00000005  1
  N  N18  1  0.89193292  0.31949737  0.65980499  1
  N  N19  1  0.89193302  0.31949730  0.34019531  1
  N  N20  1  0.39033319  0.66417917  0.65862461  1
  N  N21  1  0.39033328  0.66417922  0.34137574  1
  N  N22  1  0.87929855  0.83830285  0.50000001  1
  N  N23  1  0.37947023  0.14649202  0.50000003  1
