# generated using pymatgen
data_Mg2SbN3
_symmetry_space_group_name_H-M   'P 1'
_cell_length_a   10.42279734
_cell_length_b   5.99709557
_cell_length_c   5.43554742
_cell_angle_alpha   90.02291893
_cell_angle_beta   89.94867331
_cell_angle_gamma   89.93017253
_symmetry_Int_Tables_number   1
_chemical_formula_structural   Mg2SbN3
_chemical_formula_sum   'Mg8 Sb4 N12'
_cell_volume   339.75669257
_cell_formula_units_Z   4
loop_
 _symmetry_equiv_pos_site_id
 _symmetry_equiv_pos_as_xyz
  1  'x, y, z'
loop_
 _atom_site_type_symbol
 _atom_site_label
 _atom_site_symmetry_multiplicity
 _atom_site_fract_x
 _atom_site_fract_y
 _atom_site_fract_z
 _atom_site_occupancy
  Mg  Mg0  1  -0.83197315  0.15839953  0.88503734  1
  Mg  Mg1  1  -0.17651964  0.14913394  0.00051247  1
  Mg  Mg2  1  -0.17666010  0.83307428  0.49877436  1
  Mg  Mg3  1  -0.82772141  0.82832814  0.45179258  1
  Mg  Mg4  1  -0.33079673  0.65130607  0.00613965  1
  Mg  Mg5  1  -0.66731053  0.65336028  0.00455227  1
  Mg  Mg6  1  -0.66479800  0.33508481  0.50118270  1
  Mg  Mg7  1  -0.32955511  0.33184025  0.50631507  1
  Sb  Sb8  1  -0.99933020  0.66413321  0.88305795  1
  Sb  Sb9  1  -0.99824323  0.31767430  0.38199652  1
  Sb  Sb10  1  -0.49947171  0.16736501  0.99806850  1
  Sb  Sb11  1  -0.49920264  0.81814044  0.49863621  1
  N  N12  1  -0.16694707  0.81928067  0.89794375  1
  N  N13  1  -0.83584648  0.82006006  0.93614661  1
  N  N14  1  -0.99702513  0.34006774  0.00013285  1
  N  N15  1  -0.83952787  0.16827478  0.48883849  1
  N  N16  1  -0.16586072  0.16285386  0.39714475  1
  N  N17  1  -0.99999353  0.64082995  0.49759773  1
  N  N18  1  -0.65680243  0.32292976  0.89235268  1
  N  N19  1  -0.33999888  0.31899366  0.89166659  1
  N  N20  1  -0.65737007  0.66510533  0.39096257  1
  N  N21  1  -0.34070913  0.66409437  0.39154403  1
  N  N22  1  -0.49947161  0.83894393  0.87963033  1
  N  N23  1  -0.49886461  0.14611349  0.37954141  1
