# generated using pymatgen
data_Mg2SbN3
_symmetry_space_group_name_H-M   'P 1'
_cell_length_a   10.33457608
_cell_length_b   5.94423246
_cell_length_c   5.41558493
_cell_angle_alpha   89.99999065
_cell_angle_beta   90.00000296
_cell_angle_gamma   90.00000005
_symmetry_Int_Tables_number   1
_chemical_formula_structural   Mg2SbN3
_chemical_formula_sum   'Mg8 Sb4 N12'
_cell_volume   332.68546197
_cell_formula_units_Z   4
loop_
 _symmetry_equiv_pos_site_id
 _symmetry_equiv_pos_as_xyz
  1  'x, y, z'
loop_
 _atom_site_type_symbol
 _atom_site_label
 _atom_site_symmetry_multiplicity
 _atom_site_fract_x
 _atom_site_fract_y
 _atom_site_fract_z
 _atom_site_occupancy
  Mg  Mg0  1  -0.82963826  -0.15421143  0.99184308  1
  Mg  Mg1  1  -0.17036172  -0.15421143  0.99184308  1
  Mg  Mg2  1  -0.17036174  -0.83040394  0.49184309  1
  Mg  Mg3  1  -0.82963824  -0.83040394  0.49184309  1
  Mg  Mg4  1  -0.32963826  -0.65421143  0.99184308  1
  Mg  Mg5  1  -0.67036172  -0.65421143  0.99184308  1
  Mg  Mg6  1  -0.67036174  -0.33040394  0.49184309  1
  Mg  Mg7  1  -0.32963824  -0.33040394  0.49184310  1
  Sb  Sb8  1  -0.99999999  -0.66807522  0.98485789  1
  Sb  Sb9  1  -0.99999999  -0.31654017  0.48485788  1
  Sb  Sb10  1  -0.49999999  -0.16807522  0.98485790  1
  Sb  Sb11  1  -0.49999999  -0.81654018  0.48485789  1
  N  N12  1  -0.16156694  -0.81863564  0.87932518  1
  N  N13  1  -0.83843305  -0.81863564  0.87932519  1
  N  N14  1  -0.99999999  -0.33707920  0.86725453  1
  N  N15  1  -0.83843308  -0.16597957  0.37932518  1
  N  N16  1  -0.16156691  -0.16597957  0.37932517  1
  N  N17  1  -0.99999999  -0.64753620  0.36725454  1
  N  N18  1  -0.66156694  -0.31863564  0.87932519  1
  N  N19  1  -0.33843305  -0.31863564  0.87932518  1
  N  N20  1  -0.66156691  -0.66597958  0.37932518  1
  N  N21  1  -0.33843308  -0.66597957  0.37932518  1
  N  N22  1  -0.50000000  -0.83707920  0.86725453  1
  N  N23  1  -0.50000000  -0.14753620  0.36725454  1
