# generated using pymatgen
data_Mg2SbN3
_symmetry_space_group_name_H-M   'P 1'
_cell_length_a   10.42520330
_cell_length_b   5.99848089
_cell_length_c   5.43477953
_cell_angle_alpha   89.97925862
_cell_angle_beta   89.95176915
_cell_angle_gamma   90.09274597
_symmetry_Int_Tables_number   1
_chemical_formula_structural   Mg2SbN3
_chemical_formula_sum   'Mg8 Sb4 N12'
_cell_volume   339.86543045
_cell_formula_units_Z   4
loop_
 _symmetry_equiv_pos_site_id
 _symmetry_equiv_pos_as_xyz
  1  'x, y, z'
loop_
 _atom_site_type_symbol
 _atom_site_label
 _atom_site_symmetry_multiplicity
 _atom_site_fract_x
 _atom_site_fract_y
 _atom_site_fract_z
 _atom_site_occupancy
  Mg  Mg0  1  -0.83166705  -0.15926817  0.88675741  1
  Mg  Mg1  1  -0.17663346  -0.14923424  0.00049434  1
  Mg  Mg2  1  -0.17674383  -0.83295247  0.49815452  1
  Mg  Mg3  1  -0.82651050  -0.82729378  0.47079024  1
  Mg  Mg4  1  -0.33098871  -0.65133519  0.00607421  1
  Mg  Mg5  1  -0.66773495  -0.65396657  0.00518511  1
  Mg  Mg6  1  -0.66477549  -0.33539656  0.50095728  1
  Mg  Mg7  1  -0.32956599  -0.33183772  0.50621927  1
  Sb  Sb8  1  -0.99980229  -0.66349234  0.88261242  1
  Sb  Sb9  1  -0.99834143  -0.31739127  0.38211024  1
  Sb  Sb10  1  -0.49946576  -0.16749583  0.99801188  1
  Sb  Sb11  1  -0.49930673  -0.81824565  0.49840948  1
  N  N12  1  -0.16707599  -0.81939362  0.89817394  1
  N  N13  1  -0.83480951  -0.81891859  0.91976543  1
  N  N14  1  -0.99708743  -0.33980320  0.00000340  1
  N  N15  1  -0.83916419  -0.16885445  0.48708493  1
  N  N16  1  -0.16595167  -0.16266527  0.39703050  1
  N  N17  1  -0.00078149  -0.64036202  0.49664919  1
  N  N18  1  -0.65669948  -0.32337298  0.89237536  1
  N  N19  1  -0.34003763  -0.31909044  0.89162226  1
  N  N20  1  -0.65761719  -0.66560973  0.39051989  1
  N  N21  1  -0.34085449  -0.66407661  0.39152124  1
  N  N22  1  -0.49957665  -0.83910193  0.87952595  1
  N  N23  1  -0.49880807  -0.14622921  0.37951890  1
