# generated using pymatgen
data_Mg2SbN3
_symmetry_space_group_name_H-M   'P 1'
_cell_length_a   5.41712043
_cell_length_b   5.94383734
_cell_length_c   10.33380921
_cell_angle_alpha   89.99997963
_cell_angle_beta   89.99998582
_cell_angle_gamma   89.99891730
_symmetry_Int_Tables_number   1
_chemical_formula_structural   Mg2SbN3
_chemical_formula_sum   'Mg8 Sb4 N12'
_cell_volume   332.73297715
_cell_formula_units_Z   4
loop_
 _symmetry_equiv_pos_site_id
 _symmetry_equiv_pos_as_xyz
  1  'x, y, z'
loop_
 _atom_site_type_symbol
 _atom_site_label
 _atom_site_symmetry_multiplicity
 _atom_site_fract_x
 _atom_site_fract_y
 _atom_site_fract_z
 _atom_site_occupancy
  Mg  Mg0  1  0.99945641  0.15421210  0.82964166  1
  Mg  Mg1  1  0.99945638  0.15421211  0.17035828  1
  Mg  Mg2  1  0.49945516  0.83040536  0.17035855  1
  Mg  Mg3  1  0.49945521  0.83040540  0.82964136  1
  Mg  Mg4  1  0.99945901  0.65421087  0.32964150  1
  Mg  Mg5  1  0.99945901  0.65421084  0.67035852  1
  Mg  Mg6  1  0.49945853  0.33040419  0.67035842  1
  Mg  Mg7  1  0.49945855  0.33040417  0.32964157  1
  Sb  Sb8  1  0.99244285  0.66806618  -0.00000046  1
  Sb  Sb9  1  0.49244482  0.31655162  -0.00000043  1
  Sb  Sb10  1  0.99244788  0.16806398  0.50000037  1
  Sb  Sb11  1  0.49244941  0.81654947  0.50000041  1
  N  N12  1  0.88686051  0.81863753  0.16156959  1
  N  N13  1  0.88686069  0.81863721  0.83843082  1
  N  N14  1  0.87476483  0.33707110  1.00000010  1
  N  N15  1  0.38686132  0.16598318  0.83843122  1
  N  N16  1  0.38686119  0.16598287  0.16156925  1
  N  N17  1  0.37476384  0.64754843  1.00000013  1
  N  N18  1  0.88686370  0.31863608  0.66156845  1
  N  N19  1  0.88686361  0.31863633  0.33843110  1
  N  N20  1  0.38686398  0.66598170  0.66156869  1
  N  N21  1  0.38686383  0.66598143  0.33843091  1
  N  N22  1  0.87476952  0.83706891  0.49999986  1
  N  N23  1  0.37476882  0.14754637  0.49999989  1
