# generated using pymatgen
data_Mg2SbN3
_symmetry_space_group_name_H-M   'P 1'
_cell_length_a   5.43247600
_cell_length_b   5.99838515
_cell_length_c   10.43387755
_cell_angle_alpha   90.09713404
_cell_angle_beta   90.05296573
_cell_angle_gamma   90.01596263
_symmetry_Int_Tables_number   1
_chemical_formula_structural   Mg2SbN3
_chemical_formula_sum   'Mg8 Sb4 N12'
_cell_volume   339.99855640
_cell_formula_units_Z   4
loop_
 _symmetry_equiv_pos_site_id
 _symmetry_equiv_pos_as_xyz
  1  'x, y, z'
loop_
 _atom_site_type_symbol
 _atom_site_label
 _atom_site_symmetry_multiplicity
 _atom_site_fract_x
 _atom_site_fract_y
 _atom_site_fract_z
 _atom_site_occupancy
  Mg  Mg0  1  0.93632381  0.15646088  0.82765628  1
  Mg  Mg1  1  0.99915669  0.15031083  0.17699751  1
  Mg  Mg2  1  0.49691584  0.83307158  0.17699208  1
  Mg  Mg3  1  0.48924197  0.82803464  0.82474782  1
  Mg  Mg4  1  0.00578781  0.65207787  0.33119590  1
  Mg  Mg5  1  0.00581337  0.65411378  0.66823670  1
  Mg  Mg6  1  0.50265601  0.33467465  0.66631861  1
  Mg  Mg7  1  0.50579052  0.33224932  0.33016873  1
  Sb  Sb8  1  0.88093604  0.66328018  0.00055626  1
  Sb  Sb9  1  0.38234890  0.31760653  0.99920947  1
  Sb  Sb10  1  0.99809107  0.16780316  0.49943303  1
  Sb  Sb11  1  0.49780239  0.81832534  0.49966896  1
  N  N12  1  0.89799665  0.82033734  0.16725144  1
  N  N13  1  0.90265011  0.81755185  0.83384487  1
  N  N14  1  0.99748483  0.34070884  0.99877879  1
  N  N15  1  0.44503442  0.16595426  0.83543380  1
  N  N16  1  0.39684442  0.16288627  0.16672993  1
  N  N17  1  0.49517118  0.64066029  0.00124228  1
  N  N18  1  0.89149619  0.32313164  0.65698888  1
  N  N19  1  0.89131005  0.31992162  0.34053597  1
  N  N20  1  0.39045090  0.66565201  0.65796746  1
  N  N21  1  0.39132950  0.66447348  0.34112109  1
  N  N22  1  0.87940343  0.83944232  0.49988012  1
  N  N23  1  0.37953131  0.14665921  0.49904399  1
