# generated using pymatgen
data_Mg2SbN3
_symmetry_space_group_name_H-M   'P 1'
_cell_length_a   5.44475955
_cell_length_b   5.98538882
_cell_length_c   10.41351311
_cell_angle_alpha   90.06007301
_cell_angle_beta   89.98011234
_cell_angle_gamma   89.97807841
_symmetry_Int_Tables_number   1
_chemical_formula_structural   Mg2SbN3
_chemical_formula_sum   'Mg8 Sb4 N12'
_cell_volume   339.36577719
_cell_formula_units_Z   4
loop_
 _symmetry_equiv_pos_site_id
 _symmetry_equiv_pos_as_xyz
  1  'x, y, z'
loop_
 _atom_site_type_symbol
 _atom_site_label
 _atom_site_symmetry_multiplicity
 _atom_site_fract_x
 _atom_site_fract_y
 _atom_site_fract_z
 _atom_site_occupancy
  Mg  Mg0  1  0.88297545  0.15179225  0.83225538  1
  Mg  Mg1  1  0.94491686  0.15438237  0.17052737  1
  Mg  Mg2  1  0.38822894  0.82788246  0.16725271  1
  Mg  Mg3  1  0.38326879  0.83533430  0.83291022  1
  Mg  Mg4  1  0.00352662  0.64896670  0.33420916  1
  Mg  Mg5  1  0.00332921  0.65115205  0.66706661  1
  Mg  Mg6  1  0.50319935  0.33482753  0.66617389  1
  Mg  Mg7  1  0.50621447  0.33190118  0.33191818  1
  Sb  Sb8  1  0.88606326  0.66790531  0.99894428  1
  Sb  Sb9  1  0.38637055  0.31974665  0.99824602  1
  Sb  Sb10  1  0.00078936  0.16598555  0.50029021  1
  Sb  Sb11  1  0.50037340  0.81772508  0.50022775  1
  N  N12  1  0.99125272  0.81390251  0.15951665  1
  N  N13  1  0.99334210  0.82199159  0.84107491  1
  N  N14  1  0.00428757  0.34103949  0.99621910  1
  N  N15  1  0.49390017  0.16527278  0.84052484  1
  N  N16  1  0.44605372  0.16652398  0.16231806  1
  N  N17  1  0.50623786  0.64749115  0.99900213  1
  N  N18  1  0.89354320  0.32075215  0.65792581  1
  N  N19  1  0.89283739  0.31854794  0.34169199  1
  N  N20  1  0.39387159  0.66540068  0.65886714  1
  N  N21  1  0.39427160  0.66272803  0.34241779  1
  N  N22  1  0.88089783  0.83811602  0.50042325  1
  N  N23  1  0.38093435  0.14601679  0.49999655  1
