# generated using pymatgen
data_Mg2SbN3
_symmetry_space_group_name_H-M   'P 1'
_cell_length_a   5.43477953
_cell_length_b   5.99848089
_cell_length_c   10.42520330
_cell_angle_alpha   90.09274597
_cell_angle_beta   90.04823085
_cell_angle_gamma   90.02074138
_symmetry_Int_Tables_number   1
_chemical_formula_structural   Mg2SbN3
_chemical_formula_sum   'Mg8 Sb4 N12'
_cell_volume   339.86543045
_cell_formula_units_Z   4
loop_
 _symmetry_equiv_pos_site_id
 _symmetry_equiv_pos_as_xyz
  1  'x, y, z'
loop_
 _atom_site_type_symbol
 _atom_site_label
 _atom_site_symmetry_multiplicity
 _atom_site_fract_x
 _atom_site_fract_y
 _atom_site_fract_z
 _atom_site_occupancy
  Mg  Mg0  1  0.88675741  0.15926817  0.83166705  1
  Mg  Mg1  1  0.00049434  0.14923424  0.17663346  1
  Mg  Mg2  1  0.49815452  0.83295247  0.17674383  1
  Mg  Mg3  1  0.47079024  0.82729378  0.82651050  1
  Mg  Mg4  1  0.00607421  0.65133519  0.33098871  1
  Mg  Mg5  1  0.00518511  0.65396657  0.66773495  1
  Mg  Mg6  1  0.50095728  0.33539656  0.66477549  1
  Mg  Mg7  1  0.50621927  0.33183772  0.32956599  1
  Sb  Sb8  1  0.88261242  0.66349234  0.99980229  1
  Sb  Sb9  1  0.38211024  0.31739127  0.99834143  1
  Sb  Sb10  1  0.99801188  0.16749583  0.49946576  1
  Sb  Sb11  1  0.49840948  0.81824565  0.49930673  1
  N  N12  1  0.89817394  0.81939362  0.16707599  1
  N  N13  1  0.91976543  0.81891859  0.83480951  1
  N  N14  1  0.00000340  0.33980320  0.99708743  1
  N  N15  1  0.48708493  0.16885445  0.83916419  1
  N  N16  1  0.39703050  0.16266527  0.16595167  1
  N  N17  1  0.49664919  0.64036202  0.00078149  1
  N  N18  1  0.89237536  0.32337298  0.65669948  1
  N  N19  1  0.89162226  0.31909044  0.34003763  1
  N  N20  1  0.39051989  0.66560973  0.65761719  1
  N  N21  1  0.39152124  0.66407661  0.34085449  1
  N  N22  1  0.87952595  0.83910193  0.49957665  1
  N  N23  1  0.37951890  0.14622921  0.49880807  1
