# generated using pymatgen
data_Mg2SbN3
_symmetry_space_group_name_H-M   'P 1'
_cell_length_a   10.33418773
_cell_length_b   5.94402614
_cell_length_c   5.41635268
_cell_angle_alpha   89.99999004
_cell_angle_beta   90.00000498
_cell_angle_gamma   89.99999979
_symmetry_Int_Tables_number   1
_chemical_formula_structural   Mg2SbN3
_chemical_formula_sum   'Mg8 Sb4 N12'
_cell_volume   332.70857377
_cell_formula_units_Z   4
loop_
 _symmetry_equiv_pos_site_id
 _symmetry_equiv_pos_as_xyz
  1  'x, y, z'
loop_
 _atom_site_type_symbol
 _atom_site_label
 _atom_site_symmetry_multiplicity
 _atom_site_fract_x
 _atom_site_fract_y
 _atom_site_fract_z
 _atom_site_occupancy
  Mg  Mg0  1  -0.82963992  -0.15421103  0.99565672  1
  Mg  Mg1  1  -0.17036007  -0.15421103  0.99565674  1
  Mg  Mg2  1  -0.17036008  -0.83040444  0.49565675  1
  Mg  Mg3  1  -0.82963991  -0.83040444  0.49565674  1
  Mg  Mg4  1  -0.32963992  -0.65421102  0.99565676  1
  Mg  Mg5  1  -0.67036007  -0.65421102  0.99565673  1
  Mg  Mg6  1  -0.67036008  -0.33040443  0.49565675  1
  Mg  Mg7  1  -0.32963991  -0.33040444  0.49565678  1
  Sb  Sb8  1  -0.99999999  -0.66806992  0.98865871  1
  Sb  Sb9  1  -0.99999999  -0.31654555  0.48865867  1
  Sb  Sb10  1  -0.50000000  -0.16806991  0.98865873  1
  Sb  Sb11  1  -0.49999999  -0.81654554  0.48865870  1
  N  N12  1  -0.16156802  -0.81863493  0.88309990  1
  N  N13  1  -0.83843197  -0.81863494  0.88309989  1
  N  N14  1  -0.00000000  -0.33707360  0.87101711  1
  N  N15  1  -0.83843199  -0.16598041  0.38309989  1
  N  N16  1  -0.16156801  -0.16598041  0.38309990  1
  N  N17  1  -0.00000000  -0.64754185  0.37101714  1
  N  N18  1  -0.66156802  -0.31863493  0.88309990  1
  N  N19  1  -0.33843198  -0.31863493  0.88309992  1
  N  N20  1  -0.66156800  -0.66598040  0.38309990  1
  N  N21  1  -0.33843199  -0.66598040  0.38309992  1
  N  N22  1  -0.49999999  -0.83707359  0.87101713  1
  N  N23  1  -0.49999999  -0.14754184  0.37101716  1
