# generated using pymatgen
data_Mg2SbN3
_symmetry_space_group_name_H-M   'P 1'
_cell_length_a   5.42634256
_cell_length_b   5.98394678
_cell_length_c   10.41774285
_cell_angle_alpha   90.00000453
_cell_angle_beta   89.99983717
_cell_angle_gamma   90.09850237
_symmetry_Int_Tables_number   1
_chemical_formula_structural   Mg2SbN3
_chemical_formula_sum   'Mg8 Sb4 N12'
_cell_volume   338.27345607
_cell_formula_units_Z   4
loop_
 _symmetry_equiv_pos_site_id
 _symmetry_equiv_pos_as_xyz
  1  'x, y, z'
loop_
 _atom_site_type_symbol
 _atom_site_label
 _atom_site_symmetry_multiplicity
 _atom_site_fract_x
 _atom_site_fract_y
 _atom_site_fract_z
 _atom_site_occupancy
  Mg  Mg0  1  0.00009212  0.15620444  0.82760421  1
  Mg  Mg1  1  0.00009200  0.15620437  0.17239573  1
  Mg  Mg2  1  0.49458943  0.83112430  0.17689981  1
  Mg  Mg3  1  0.49458955  0.83112419  0.82310022  1
  Mg  Mg4  1  0.00453488  0.65328658  0.33063885  1
  Mg  Mg5  1  0.00453481  0.65328657  0.66936107  1
  Mg  Mg6  1  0.50602474  0.33249389  0.66818647  1
  Mg  Mg7  1  0.50602482  0.33249385  0.33181349  1
  Sb  Sb8  1  0.88390530  0.66610396  0.99999975  1
  Sb  Sb9  1  0.45563335  0.31045325  0.99999974  1
  Sb  Sb10  1  0.99721438  0.16782732  0.50000009  1
  Sb  Sb11  1  0.49764664  0.81758348  0.50000011  1
  N  N12  1  0.89597388  0.82368826  0.16715728  1
  N  N13  1  0.89597394  0.82368826  0.83284288  1
  N  N14  1  0.92372708  0.32980814  0.00000002  1
  N  N15  1  0.39321098  0.16479322  0.83351285  1
  N  N16  1  0.39321082  0.16479310  0.16648743  1
  N  N17  1  0.48378570  0.64820347  0.00000004  1
  N  N18  1  0.89191923  0.31956928  0.65967649  1
  N  N19  1  0.89191917  0.31956937  0.34032350  1
  N  N20  1  0.39034037  0.66417438  0.65861690  1
  N  N21  1  0.39034028  0.66417424  0.34138307  1
  N  N22  1  0.87930114  0.83827981  0.49999999  1
  N  N23  1  0.37947233  0.14645688  0.50000000  1
