# generated using pymatgen
data_Mg2SbN3
_symmetry_space_group_name_H-M   'P 1'
_cell_length_a   10.41597679
_cell_length_b   5.99230986
_cell_length_c   5.43708306
_cell_angle_alpha   90.02458993
_cell_angle_beta   89.95130751
_cell_angle_gamma   89.96683855
_symmetry_Int_Tables_number   1
_chemical_formula_structural   Mg2SbN3
_chemical_formula_sum   'Mg8 Sb4 N12'
_cell_volume   339.35946324
_cell_formula_units_Z   4
loop_
 _symmetry_equiv_pos_site_id
 _symmetry_equiv_pos_as_xyz
  1  'x, y, z'
loop_
 _atom_site_type_symbol
 _atom_site_label
 _atom_site_symmetry_multiplicity
 _atom_site_fract_x
 _atom_site_fract_y
 _atom_site_fract_z
 _atom_site_occupancy
  Mg  Mg0  1  -0.83227972  0.15597105  0.88328660  1
  Mg  Mg1  1  -0.17629286  0.14918772  0.00060482  1
  Mg  Mg2  1  -0.17642620  0.83333737  0.49979523  1
  Mg  Mg3  1  -0.83013138  0.83039756  0.41281292  1
  Mg  Mg4  1  -0.33042450  0.65140885  0.00626727  1
  Mg  Mg5  1  -0.66655940  0.65240564  0.00335117  1
  Mg  Mg6  1  -0.66505563  0.33452717  0.50160235  1
  Mg  Mg7  1  -0.32956634  0.33192965  0.50642833  1
  Sb  Sb8  1  -0.99827606  0.66529665  0.88354712  1
  Sb  Sb9  1  -0.99788756  0.31805491  0.38233176  1
  Sb  Sb10  1  -0.49946273  0.16725421  0.99827570  1
  Sb  Sb11  1  -0.49916027  0.81794917  0.49884373  1
  N  N12  1  -0.16649976  0.81920430  0.89761786  1
  N  N13  1  -0.83823555  0.82186737  0.96936994  1
  N  N14  1  -0.99676484  0.34068460  0.00053926  1
  N  N15  1  -0.84001577  0.16600207  0.49116632  1
  N  N16  1  -0.16570439  0.16331312  0.39725966  1
  N  N17  1  -0.99824684  0.64188600  0.49960722  1
  N  N18  1  -0.65710023  0.32215655  0.89236370  1
  N  N19  1  -0.33994015  0.31896591  0.89165645  1
  N  N20  1  -0.65720958  0.66448045  0.39194568  1
  N  N21  1  -0.34042158  0.66427331  0.39156081  1
  N  N22  1  -0.49936057  0.83874589  0.87975408  1
  N  N23  1  -0.49897805  0.14608834  0.37957942  1
