# generated using pymatgen
data_Mg2SbN3
_symmetry_space_group_name_H-M   'P 1'
_cell_length_a   10.37988252
_cell_length_b   5.96976731
_cell_length_c   5.42173359
_cell_angle_alpha   90.09407393
_cell_angle_beta   90.00014807
_cell_angle_gamma   90.00004853
_symmetry_Int_Tables_number   1
_chemical_formula_structural   Mg2SbN3
_chemical_formula_sum   'Mg8 Sb4 N12'
_cell_volume   335.95989025
_cell_formula_units_Z   4
loop_
 _symmetry_equiv_pos_site_id
 _symmetry_equiv_pos_as_xyz
  1  'x, y, z'
loop_
 _atom_site_type_symbol
 _atom_site_label
 _atom_site_symmetry_multiplicity
 _atom_site_fract_x
 _atom_site_fract_y
 _atom_site_fract_z
 _atom_site_occupancy
  Mg  Mg0  1  -0.82882170  -0.15754256  0.00697216  1
  Mg  Mg1  1  -0.17117824  -0.15754256  0.00697214  1
  Mg  Mg2  1  -0.17326546  -0.82976321  0.49266357  1
  Mg  Mg3  1  -0.82673465  -0.82976309  0.49266353  1
  Mg  Mg4  1  -0.33175685  -0.65257327  0.00470300  1
  Mg  Mg5  1  -0.66824299  -0.65257336  0.00470285  1
  Mg  Mg6  1  -0.67018753  -0.33039585  0.50478713  1
  Mg  Mg7  1  -0.32981242  -0.33039581  0.50478724  1
  Sb  Sb8  1  -0.00000083  -0.67076445  0.93002700  1
  Sb  Sb9  1  -0.00000052  -0.31269599  0.49334258  1
  Sb  Sb10  1  -0.49999940  -0.16762843  0.99730546  1
  Sb  Sb11  1  -0.49999937  -0.81681703  0.49718766  1
  N  N12  1  -0.16691254  -0.82375969  0.89346021  1
  N  N13  1  -0.83308664  -0.82376046  0.89345992  1
  N  N14  1  -0.99999995  -0.32807945  0.88231662  1
  N  N15  1  -0.83701149  -0.16575593  0.39187828  1
  N  N16  1  -0.16298800  -0.16575636  0.39187855  1
  N  N17  1  -0.99999994  -0.64892806  0.44102019  1
  N  N18  1  -0.66069001  -0.31894146  0.89206663  1
  N  N19  1  -0.33931071  -0.31894100  0.89206696  1
  N  N20  1  -0.65953914  -0.66421075  0.39055658  1
  N  N21  1  -0.34046149  -0.66421116  0.39055700  1
  N  N22  1  -0.50000008  -0.83793985  0.87912984  1
  N  N23  1  -0.50000005  -0.14664481  0.37955181  1
