# generated using pymatgen
data_Mg2SbN3
_symmetry_space_group_name_H-M   'P 1'
_cell_length_a   10.40857556
_cell_length_b   5.98749124
_cell_length_c   5.43785090
_cell_angle_alpha   89.97444866
_cell_angle_beta   89.95330402
_cell_angle_gamma   90.01132859
_symmetry_Int_Tables_number   1
_chemical_formula_structural   Mg2SbN3
_chemical_formula_sum   'Mg8 Sb4 N12'
_cell_volume   338.89353976
_cell_formula_units_Z   4
loop_
 _symmetry_equiv_pos_site_id
 _symmetry_equiv_pos_as_xyz
  1  'x, y, z'
loop_
 _atom_site_type_symbol
 _atom_site_label
 _atom_site_symmetry_multiplicity
 _atom_site_fract_x
 _atom_site_fract_y
 _atom_site_fract_z
 _atom_site_occupancy
  Mg  Mg0  1  -0.83244373  -0.15408181  0.88235038  1
  Mg  Mg1  1  -0.17613379  -0.14930303  0.00095042  1
  Mg  Mg2  1  -0.17623264  -0.83367449  0.50097176  1
  Mg  Mg3  1  -0.83159206  -0.83168894  0.39284947  1
  Mg  Mg4  1  -0.33009152  -0.65161423  0.00643582  1
  Mg  Mg5  1  -0.66618552  -0.65198566  0.00256140  1
  Mg  Mg6  1  -0.66540295  -0.33413726  0.50171804  1
  Mg  Mg7  1  -0.32956005  -0.33208997  0.50647984  1
  Sb  Sb8  1  -0.99762569  -0.66575757  0.88365059  1
  Sb  Sb9  1  -0.99756285  -0.31825860  0.38289121  1
  Sb  Sb10  1  -0.49946274  -0.16728488  0.99841151  1
  Sb  Sb11  1  -0.49925140  -0.81781025  0.49873216  1
  N  N12  1  -0.16607817  -0.81931239  0.89725783  1
  N  N13  1  -0.83979273  -0.82271552  0.98564423  1
  N  N14  1  -0.99643402  -0.34105801  0.00100827  1
  N  N15  1  -0.84033209  -0.16395293  0.49233709  1
  N  N16  1  -0.16560375  -0.16364073  0.39729280  1
  N  N17  1  -0.99699866  -0.64255734  0.50082201  1
  N  N18  1  -0.65741044  -0.32163154  0.89233667  1
  N  N19  1  -0.33985573  -0.31905842  0.89162255  1
  N  N20  1  -0.65742333  -0.66432525  0.39230724  1
  N  N21  1  -0.34016214  -0.66457832  0.39159099  1
  N  N22  1  -0.49930306  -0.83864597  0.87970882  1
  N  N23  1  -0.49906090  -0.14622496  0.37956834  1
