# generated using pymatgen
data_Mg2SbN3
_symmetry_space_group_name_H-M   'P 1'
_cell_length_a   10.40392307
_cell_length_b   5.96791119
_cell_length_c   5.44859852
_cell_angle_alpha   89.99998687
_cell_angle_beta   90.00000009
_cell_angle_gamma   89.99999996
_symmetry_Int_Tables_number   1
_chemical_formula_structural   Mg2SbN3
_chemical_formula_sum   'Mg8 Sb4 N12'
_cell_volume   338.30178692
_cell_formula_units_Z   4
loop_
 _symmetry_equiv_pos_site_id
 _symmetry_equiv_pos_as_xyz
  1  'x, y, z'
loop_
 _atom_site_type_symbol
 _atom_site_label
 _atom_site_symmetry_multiplicity
 _atom_site_fract_x
 _atom_site_fract_y
 _atom_site_fract_z
 _atom_site_occupancy
  Mg  Mg0  1  -0.83313387  -0.15050090  0.89843117  1
  Mg  Mg1  1  -0.16686611  -0.15050090  0.89843117  1
  Mg  Mg2  1  -0.16686613  -0.83411427  0.39843114  1
  Mg  Mg3  1  -0.83313385  -0.83411427  0.39843114  1
  Mg  Mg4  1  -0.33313388  -0.65050089  0.01797922  1
  Mg  Mg5  1  -0.66686610  -0.65050089  0.01797922  1
  Mg  Mg6  1  -0.66686612  -0.33411430  0.51797928  1
  Mg  Mg7  1  -0.33313386  -0.33411430  0.51797928  1
  Sb  Sb8  1  0.00000001  -0.66651320  0.90142892  1
  Sb  Sb9  1  0.00000001  -0.31810192  0.40142893  1
  Sb  Sb10  1  -0.49999999  -0.16651320  0.01498144  1
  Sb  Sb11  1  -0.49999999  -0.81810196  0.51498139  1
  N  N12  1  -0.15860257  -0.81946339  0.00834147  1
  N  N13  1  -0.84139741  -0.81946339  0.00834147  1
  N  N14  1  -0.99999999  -0.33773601  0.02131946  1
  N  N15  1  -0.84139744  -0.16515170  0.50834150  1
  N  N16  1  -0.15860254  -0.16515171  0.50834150  1
  N  N17  1  -0.99999999  -0.64687920  0.52131939  1
  N  N18  1  -0.65860256  -0.31946338  0.90806892  1
  N  N19  1  -0.34139742  -0.31946338  0.90806892  1
  N  N20  1  -0.65860254  -0.66515167  0.40806889  1
  N  N21  1  -0.34139744  -0.66515167  0.40806889  1
  N  N22  1  -0.49999999  -0.83773597  0.89509085  1
  N  N23  1  -0.49999999  -0.14687923  0.39509096  1
