# generated using pymatgen
data_Mg2SbN3
_symmetry_space_group_name_H-M   'P 1'
_cell_length_a   5.42250107
_cell_length_b   5.97170084
_cell_length_c   10.38296610
_cell_angle_alpha   90.00005452
_cell_angle_beta   89.99997143
_cell_angle_gamma   89.90741928
_symmetry_Int_Tables_number   1
_chemical_formula_structural   Mg2SbN3
_chemical_formula_sum   'Mg8 Sb4 N12'
_cell_volume   336.21614105
_cell_formula_units_Z   4
loop_
 _symmetry_equiv_pos_site_id
 _symmetry_equiv_pos_as_xyz
  1  'x, y, z'
loop_
 _atom_site_type_symbol
 _atom_site_label
 _atom_site_symmetry_multiplicity
 _atom_site_fract_x
 _atom_site_fract_y
 _atom_site_fract_z
 _atom_site_occupancy
  Mg  Mg0  1  0.00720933  0.15758930  0.82886928  1
  Mg  Mg1  1  0.00720933  0.15758933  0.17113064  1
  Mg  Mg2  1  0.49180300  0.83004461  0.17372529  1
  Mg  Mg3  1  0.49180299  0.83004456  0.82627477  1
  Mg  Mg4  1  0.00477900  0.65253731  0.33177762  1
  Mg  Mg5  1  0.00477896  0.65253735  0.66822232  1
  Mg  Mg6  1  0.50488468  0.33046200  0.67012785  1
  Mg  Mg7  1  0.50488471  0.33046195  0.32987222  1
  Sb  Sb8  1  0.91390770  0.67103200  0.99999988  1
  Sb  Sb9  1  0.49363819  0.31163928  0.99999997  1
  Sb  Sb10  1  0.99726816  0.16761940  0.50000003  1
  Sb  Sb11  1  0.49726443  0.81683383  0.50000007  1
  N  N12  1  0.89464963  0.82427115  0.16740779  1
  N  N13  1  0.89464957  0.82427115  0.83259227  1
  N  N14  1  0.88334169  0.32680162  0.00000000  1
  N  N15  1  0.39195716  0.16592752  0.83690324  1
  N  N16  1  0.39195716  0.16592758  0.16309667  1
  N  N17  1  0.45401432  0.64910239  -0.00000004  1
  N  N18  1  0.89212038  0.31894132  0.66067167  1
  N  N19  1  0.89212039  0.31894124  0.33932849  1
  N  N20  1  0.39056400  0.66412769  0.65943448  1
  N  N21  1  0.39056403  0.66412768  0.34056547  1
  N  N22  1  0.87913748  0.83796616  0.50000003  1
  N  N23  1  0.37955062  0.14658816  0.50000000  1
