# generated using pymatgen
data_Mg2SbN3
_symmetry_space_group_name_H-M   'P 1'
_cell_length_a   10.41234614
_cell_length_b   5.99106463
_cell_length_c   5.44168850
_cell_angle_alpha   89.98561916
_cell_angle_beta   90.00392392
_cell_angle_gamma   89.86441285
_symmetry_Int_Tables_number   1
_chemical_formula_structural   Mg2SbN3
_chemical_formula_sum   'Mg8 Sb4 N12'
_cell_volume   339.45721915
_cell_formula_units_Z   4
loop_
 _symmetry_equiv_pos_site_id
 _symmetry_equiv_pos_as_xyz
  1  'x, y, z'
loop_
 _atom_site_type_symbol
 _atom_site_label
 _atom_site_symmetry_multiplicity
 _atom_site_fract_x
 _atom_site_fract_y
 _atom_site_fract_z
 _atom_site_occupancy
  Mg  Mg0  1  -0.83212207  0.15216079  0.88248663  1
  Mg  Mg1  1  -0.17362692  0.15681515  0.99113046  1
  Mg  Mg2  1  -0.16860423  0.82659190  0.40108406  1
  Mg  Mg3  1  -0.83271040  0.83508252  0.38242316  1
  Mg  Mg4  1  -0.33391805  0.64817763  0.00335117  1
  Mg  Mg5  1  -0.66700768  0.65091090  0.00269900  1
  Mg  Mg6  1  -0.66578427  0.33430756  0.50280780  1
  Mg  Mg7  1  -0.33066488  0.33023071  0.50790467  1
  Sb  Sb8  1  -0.99867404  0.66898675  0.88635094  1
  Sb  Sb9  1  -0.99690368  0.32148250  0.38443077  1
  Sb  Sb10  1  -0.49998489  0.16553574  0.99988206  1
  Sb  Sb11  1  -0.50030449  0.81702771  0.50015076  1
  N  N12  1  -0.16111764  0.81385437  0.98061805  1
  N  N13  1  -0.84074758  0.82305545  0.99294921  1
  N  N14  1  -0.99422019  0.34301221  0.00220141  1
  N  N15  1  -0.84056448  0.16445802  0.49393868  1
  N  N16  1  -0.16441040  0.16931143  0.40646796  1
  N  N17  1  -0.99854263  0.64765675  0.50567306  1
  N  N18  1  -0.65765072  0.32060322  0.89312359  1
  N  N19  1  -0.34100015  0.31732456  0.89184219  1
  N  N20  1  -0.65880306  0.66466608  0.39359376  1
  N  N21  1  -0.34250331  0.66133176  0.39427736  1
  N  N22  1  -0.50053970  0.83765256  0.88073481  1
  N  N23  1  -0.49959449  0.14514830  0.38050514  1
