# generated using pymatgen
data_Mg2SbN3
_symmetry_space_group_name_H-M   'P 1'
_cell_length_a   10.41247195
_cell_length_b   5.99142803
_cell_length_c   5.44092076
_cell_angle_alpha   90.01608991
_cell_angle_beta   90.00744851
_cell_angle_gamma   90.12344309
_symmetry_Int_Tables_number   1
_chemical_formula_structural   Mg2SbN3
_chemical_formula_sum   'Mg8 Sb4 N12'
_cell_volume   339.43417266
_cell_formula_units_Z   4
loop_
 _symmetry_equiv_pos_site_id
 _symmetry_equiv_pos_as_xyz
  1  'x, y, z'
loop_
 _atom_site_type_symbol
 _atom_site_label
 _atom_site_symmetry_multiplicity
 _atom_site_fract_x
 _atom_site_fract_y
 _atom_site_fract_z
 _atom_site_occupancy
  Mg  Mg0  1  -0.83217028  -0.15203985  0.88228004  1
  Mg  Mg1  1  -0.17397173  -0.15603252  0.99361916  1
  Mg  Mg2  1  -0.17008073  -0.82809765  0.42228853  1
  Mg  Mg3  1  -0.83258115  -0.83472783  0.38210433  1
  Mg  Mg4  1  -0.33321621  -0.64864715  0.00405712  1
  Mg  Mg5  1  -0.66682524  -0.65078738  0.00258588  1
  Mg  Mg6  1  -0.66578070  -0.33404797  0.50272620  1
  Mg  Mg7  1  -0.33057953  -0.33044535  0.50792612  1
  Sb  Sb8  1  -0.99830166  -0.66862496  0.88612171  1
  Sb  Sb9  1  -0.99668419  -0.32122167  0.38389384  1
  Sb  Sb10  1  -0.49990284  -0.16560648  0.99966383  1
  Sb  Sb11  1  -0.50028485  -0.81699351  0.50013254  1
  N  N12  1  -0.16246045  -0.81542112  0.96252563  1
  N  N13  1  -0.84056587  -0.82306090  0.99297219  1
  N  N14  1  -0.99427471  -0.34279226  0.00194194  1
  N  N15  1  -0.84054806  -0.16392140  0.49383046  1
  N  N16  1  -0.16453509  -0.16933934  0.40391543  1
  N  N17  1  -0.99777451  -0.64683047  0.50470742  1
  N  N18  1  -0.65767983  -0.32048162  0.89309189  1
  N  N19  1  -0.34091905  -0.31755371  0.89190499  1
  N  N20  1  -0.65862227  -0.66437313  0.39347023  1
  N  N21  1  -0.34228384  -0.66164598  0.39371572  1
  N  N22  1  -0.50043861  -0.83760290  0.88069350  1
  N  N23  1  -0.49951858  -0.14508942  0.38045802  1
