# generated using pymatgen
data_Mg2SbN3
_symmetry_space_group_name_H-M   'P 1'
_cell_length_a   10.40873349
_cell_length_b   5.97811729
_cell_length_c   5.44629507
_cell_angle_alpha   89.97632971
_cell_angle_beta   90.01153499
_cell_angle_gamma   89.98067455
_symmetry_Int_Tables_number   1
_chemical_formula_structural   Mg2SbN3
_chemical_formula_sum   'Mg8 Sb4 N12'
_cell_volume   338.89363868
_cell_formula_units_Z   4
loop_
 _symmetry_equiv_pos_site_id
 _symmetry_equiv_pos_as_xyz
  1  'x, y, z'
loop_
 _atom_site_type_symbol
 _atom_site_label
 _atom_site_symmetry_multiplicity
 _atom_site_fract_x
 _atom_site_fract_y
 _atom_site_fract_z
 _atom_site_occupancy
  Mg  Mg0  1  -0.83259020  0.15141977  0.88348694  1
  Mg  Mg1  1  -0.16796090  0.15198643  0.90138141  1
  Mg  Mg2  1  -0.16709183  0.83121558  0.38619844  1
  Mg  Mg3  1  -0.83301454  0.83499317  0.38371330  1
  Mg  Mg4  1  -0.33379811  0.64967487  0.00394405  1
  Mg  Mg5  1  -0.66702419  0.65097011  0.00350017  1
  Mg  Mg6  1  -0.66650016  0.33463392  0.50333453  1
  Mg  Mg7  1  -0.33282491  0.33301471  0.50492764  1
  Sb  Sb8  1  -0.99949489  0.66732073  0.88676719  1
  Sb  Sb9  1  -0.99945969  0.31842837  0.38732881  1
  Sb  Sb10  1  -0.50025637  0.16620494  0.00098945  1
  Sb  Sb11  1  -0.50019376  0.81784724  0.50067473  1
  N  N12  1  -0.15905238  0.81697919  0.99347779  1
  N  N13  1  -0.84124025  0.82100186  0.99355513  1
  N  N14  1  -0.99837994  0.33925148  0.00635369  1
  N  N15  1  -0.84085223  0.16545651  0.49375532  1
  N  N16  1  -0.15976461  0.16505930  0.48266305  1
  N  N17  1  -0.99939665  0.64697507  0.50671370  1
  N  N18  1  -0.65822531  0.32038968  0.89366923  1
  N  N19  1  -0.34174804  0.31912863  0.89406309  1
  N  N20  1  -0.65880162  0.66537452  0.39381761  1
  N  N21  1  -0.34200549  0.66375187  0.39429886  1
  N  N22  1  -0.50027408  0.83802328  0.88098363  1
  N  N23  1  -0.50004983  0.14628329  0.38108913  1
