# generated using pymatgen
data_Mg2SbN3
_symmetry_space_group_name_H-M   'P 1'
_cell_length_a   10.40117661
_cell_length_b   5.96623672
_cell_length_c   5.45013400
_cell_angle_alpha   90.00153567
_cell_angle_beta   89.99968588
_cell_angle_gamma   90.00038018
_symmetry_Int_Tables_number   1
_chemical_formula_structural   Mg2SbN3
_chemical_formula_sum   'Mg8 Sb4 N12'
_cell_volume   338.21287100
_cell_formula_units_Z   4
loop_
 _symmetry_equiv_pos_site_id
 _symmetry_equiv_pos_as_xyz
  1  'x, y, z'
loop_
 _atom_site_type_symbol
 _atom_site_label
 _atom_site_symmetry_multiplicity
 _atom_site_fract_x
 _atom_site_fract_y
 _atom_site_fract_z
 _atom_site_occupancy
  Mg  Mg0  1  -0.83315453  -0.15045830  0.91012015  1
  Mg  Mg1  1  -0.16685303  -0.15045585  0.91014381  1
  Mg  Mg2  1  -0.16684789  -0.83415054  0.41014010  1
  Mg  Mg3  1  -0.83315039  -0.83415179  0.41012224  1
  Mg  Mg4  1  -0.33314399  -0.65046316  0.02984620  1
  Mg  Mg5  1  -0.66684721  -0.65046612  0.02983163  1
  Mg  Mg6  1  -0.66685307  -0.33415851  0.52983874  1
  Mg  Mg7  1  -0.33314914  -0.33415465  0.52984757  1
  Sb  Sb8  1  -0.00000009  -0.66647275  0.91317042  1
  Sb  Sb9  1  -0.00000489  -0.31813572  0.41316969  1
  Sb  Sb10  1  -0.50000058  -0.16648365  0.02679975  1
  Sb  Sb11  1  -0.49999724  -0.81814060  0.52679931  1
  N  N12  1  -0.15860012  -0.81943516  0.02020676  1
  N  N13  1  -0.84139321  -0.81943737  0.02019174  1
  N  N14  1  -0.00000392  -0.33766232  0.03315117  1
  N  N15  1  -0.84139467  -0.16516895  0.52018760  1
  N  N16  1  -0.15860739  -0.16517057  0.52018865  1
  N  N17  1  -0.99999915  -0.64694421  0.53315473  1
  N  N18  1  -0.65861037  -0.31944620  0.91976848  1
  N  N19  1  -0.34139435  -0.31944445  0.91978572  1
  N  N20  1  -0.65860389  -0.66517851  0.41976556  1
  N  N21  1  -0.34139200  -0.66517802  0.41978420  1
  N  N22  1  -0.49999679  -0.83767396  0.90681684  1
  N  N23  1  -0.50000210  -0.14695327  0.40681842  1
