# generated using pymatgen
data_Mg2SbN3
_symmetry_space_group_name_H-M   'P 1'
_cell_length_a   10.37655301
_cell_length_b   5.96779282
_cell_length_c   5.42096612
_cell_angle_alpha   89.90445011
_cell_angle_beta   90.00026794
_cell_angle_gamma   89.99997732
_symmetry_Int_Tables_number   1
_chemical_formula_structural   Mg2SbN3
_chemical_formula_sum   'Mg8 Sb4 N12'
_cell_volume   335.69350265
_cell_formula_units_Z   4
loop_
 _symmetry_equiv_pos_site_id
 _symmetry_equiv_pos_as_xyz
  1  'x, y, z'
loop_
 _atom_site_type_symbol
 _atom_site_label
 _atom_site_symmetry_multiplicity
 _atom_site_fract_x
 _atom_site_fract_y
 _atom_site_fract_z
 _atom_site_occupancy
  Mg  Mg0  1  -0.82879636  0.15740045  0.00664305  1
  Mg  Mg1  1  -0.17120336  0.15740044  0.00664286  1
  Mg  Mg2  1  -0.17291056  0.82960734  0.49360094  1
  Mg  Mg3  1  -0.82708935  0.82960723  0.49360127  1
  Mg  Mg4  1  -0.33168568  0.65265553  0.00458608  1
  Mg  Mg5  1  -0.66831434  0.65265543  0.00458598  1
  Mg  Mg6  1  -0.67021851  0.33034777  0.50471099  1
  Mg  Mg7  1  -0.32978161  0.33034760  0.50471106  1
  Sb  Sb8  1  -0.99999659  0.67045793  0.94564748  1
  Sb  Sb9  1  -0.99999846  0.31345271  0.49331710  1
  Sb  Sb10  1  -0.50000107  0.16763233  0.99731934  1
  Sb  Sb11  1  -0.50000131  0.81678841  0.49713474  1
  N  N12  1  -0.16630366  0.82313993  0.89240701  1
  N  N13  1  -0.83369963  0.82313763  0.89240742  1
  N  N14  1  -0.00000037  0.32946364  0.88133455  1
  N  N15  1  -0.83713978  0.16569287  0.39176653  1
  N  N16  1  -0.16286166  0.16569190  0.39176589  1
  N  N17  1  -0.00000035  0.64886170  0.42808279  1
  N  N18  1  -0.66070983  0.31893661  0.89201314  1
  N  N19  1  -0.33928929  0.31893730  0.89201272  1
  N  N20  1  -0.65964797  0.66428692  0.39054628  1
  N  N21  1  -0.34035078  0.66428603  0.39054579  1
  N  N22  1  -0.49999973  0.83790613  0.87912107  1
  N  N23  1  -0.49999975  0.14669077  0.37955284  1
