# generated using pymatgen
data_Mg2SbN3
_symmetry_space_group_name_H-M   'P 1'
_cell_length_a   5.41481718
_cell_length_b   5.94444213
_cell_length_c   10.33495645
_cell_angle_alpha   89.99999992
_cell_angle_beta   89.99999800
_cell_angle_gamma   90.00001150
_symmetry_Int_Tables_number   1
_chemical_formula_structural   Mg2SbN3
_chemical_formula_sum   'Mg8 Sb4 N12'
_cell_volume   332.66227450
_cell_formula_units_Z   4
loop_
 _symmetry_equiv_pos_site_id
 _symmetry_equiv_pos_as_xyz
  1  'x, y, z'
loop_
 _atom_site_type_symbol
 _atom_site_label
 _atom_site_symmetry_multiplicity
 _atom_site_fract_x
 _atom_site_fract_y
 _atom_site_fract_z
 _atom_site_occupancy
  Mg  Mg0  1  0.98812364  0.15421159  0.82963661  1
  Mg  Mg1  1  0.98812364  0.15421159  0.17036338  1
  Mg  Mg2  1  0.48812366  0.83040378  0.17036340  1
  Mg  Mg3  1  0.48812367  0.83040378  0.82963659  1
  Mg  Mg4  1  0.98812365  0.65421159  0.32963661  1
  Mg  Mg5  1  0.98812365  0.65421159  0.67036338  1
  Mg  Mg6  1  0.48812367  0.33040378  0.67036340  1
  Mg  Mg7  1  0.48812367  0.33040378  0.32963659  1
  Sb  Sb8  1  0.98115139  0.66808040  1.00000000  1
  Sb  Sb9  1  0.48115133  0.31653497  1.00000000  1
  Sb  Sb10  1  0.98115140  0.16808040  0.49999999  1
  Sb  Sb11  1  0.48115135  0.81653497  0.49999999  1
  N  N12  1  0.87564450  0.81863637  0.16156589  1
  N  N13  1  0.87564450  0.81863638  0.83843409  1
  N  N14  1  0.86358628  0.33708478  0.99999999  1
  N  N15  1  0.37564450  0.16597884  0.83843411  1
  N  N16  1  0.37564450  0.16597885  0.16156587  1
  N  N17  1  0.36358632  0.64753057  -0.00000001  1
  N  N18  1  0.87564451  0.31863638  0.66156590  1
  N  N19  1  0.87564451  0.31863637  0.33843410  1
  N  N20  1  0.37564450  0.66597884  0.66156588  1
  N  N21  1  0.37564450  0.66597884  0.33843412  1
  N  N22  1  0.86358630  0.83708478  0.50000000  1
  N  N23  1  0.36358634  0.14753057  0.50000000  1
