# generated using pymatgen
data_Mg2SbN3
_symmetry_space_group_name_H-M   'P 1'
_cell_length_a   5.44936628
_cell_length_b   5.96770731
_cell_length_c   10.40355300
_cell_angle_alpha   89.99999980
_cell_angle_beta   90.00000018
_cell_angle_gamma   90.00000952
_symmetry_Int_Tables_number   1
_chemical_formula_structural   Mg2SbN3
_chemical_formula_sum   'Mg8 Sb4 N12'
_cell_volume   338.32586356
_cell_formula_units_Z   4
loop_
 _symmetry_equiv_pos_site_id
 _symmetry_equiv_pos_as_xyz
  1  'x, y, z'
loop_
 _atom_site_type_symbol
 _atom_site_label
 _atom_site_symmetry_multiplicity
 _atom_site_fract_x
 _atom_site_fract_y
 _atom_site_fract_z
 _atom_site_occupancy
  Mg  Mg0  1  0.90429662  0.15049704  0.83313775  1
  Mg  Mg1  1  0.90429662  0.15049703  0.16686224  1
  Mg  Mg2  1  0.40429660  0.83411832  0.16686226  1
  Mg  Mg3  1  0.40429661  0.83411832  0.83313773  1
  Mg  Mg4  1  0.02389193  0.65049700  0.33313776  1
  Mg  Mg5  1  0.02389192  0.65049701  0.66686223  1
  Mg  Mg6  1  0.52389197  0.33411832  0.66686225  1
  Mg  Mg7  1  0.52389197  0.33411832  0.33313774  1
  Sb  Sb8  1  0.90731275  0.66650763  0.99999999  1
  Sb  Sb9  1  0.40731272  0.31810772  0.99999999  1
  Sb  Sb10  1  0.02087569  0.16650755  0.50000000  1
  Sb  Sb11  1  0.52087564  0.81810772  0.49999999  1
  N  N12  1  0.01425559  0.81946540  0.15860044  1
  N  N13  1  0.01425559  0.81946541  0.84139955  1
  N  N14  1  0.02724117  0.33773084  0.99999999  1
  N  N15  1  0.51425560  0.16514988  0.84139959  1
  N  N16  1  0.51425560  0.16514988  0.15860039  1
  N  N17  1  0.52724123  0.64688457  0.99999999  1
  N  N18  1  0.91393296  0.31946539  0.65860042  1
  N  N19  1  0.91393297  0.31946539  0.34139956  1
  N  N20  1  0.41393291  0.66514980  0.65860041  1
  N  N21  1  0.41393292  0.66514980  0.34139958  1
  N  N22  1  0.90094708  0.83773075  0.49999999  1
  N  N23  1  0.40094716  0.14688455  0.49999999  1
