# generated using pymatgen
data_Mg2SbN3
_symmetry_space_group_name_H-M   'P 1'
_cell_length_a   10.41351311
_cell_length_b   5.98538882
_cell_length_c   5.44475955
_cell_angle_alpha   89.97807841
_cell_angle_beta   90.01988766
_cell_angle_gamma   89.93992699
_symmetry_Int_Tables_number   1
_chemical_formula_structural   Mg2SbN3
_chemical_formula_sum   'Mg8 Sb4 N12'
_cell_volume   339.36577719
_cell_formula_units_Z   4
loop_
 _symmetry_equiv_pos_site_id
 _symmetry_equiv_pos_as_xyz
  1  'x, y, z'
loop_
 _atom_site_type_symbol
 _atom_site_label
 _atom_site_symmetry_multiplicity
 _atom_site_fract_x
 _atom_site_fract_y
 _atom_site_fract_z
 _atom_site_occupancy
  Mg  Mg0  1  -0.83225538  0.15179225  0.88297545  1
  Mg  Mg1  1  -0.17052737  0.15438237  0.94491686  1
  Mg  Mg2  1  -0.16725271  0.82788246  0.38822894  1
  Mg  Mg3  1  -0.83291022  0.83533430  0.38326879  1
  Mg  Mg4  1  -0.33420916  0.64896670  0.00352662  1
  Mg  Mg5  1  -0.66706661  0.65115205  0.00332921  1
  Mg  Mg6  1  -0.66617389  0.33482753  0.50319935  1
  Mg  Mg7  1  -0.33191818  0.33190118  0.50621447  1
  Sb  Sb8  1  -0.99894428  0.66790531  0.88606326  1
  Sb  Sb9  1  -0.99824602  0.31974665  0.38637055  1
  Sb  Sb10  1  -0.50029021  0.16598555  0.00078936  1
  Sb  Sb11  1  -0.50022775  0.81772508  0.50037340  1
  N  N12  1  -0.15951665  0.81390251  0.99125272  1
  N  N13  1  -0.84107491  0.82199159  0.99334210  1
  N  N14  1  -0.99621910  0.34103949  0.00428757  1
  N  N15  1  -0.84052484  0.16527278  0.49390017  1
  N  N16  1  -0.16231806  0.16652398  0.44605372  1
  N  N17  1  -0.99900213  0.64749115  0.50623786  1
  N  N18  1  -0.65792581  0.32075215  0.89354320  1
  N  N19  1  -0.34169199  0.31854794  0.89283739  1
  N  N20  1  -0.65886714  0.66540068  0.39387159  1
  N  N21  1  -0.34241779  0.66272803  0.39427160  1
  N  N22  1  -0.50042325  0.83811602  0.88089783  1
  N  N23  1  -0.49999655  0.14601679  0.38093435  1
