# generated using pymatgen
data_Mg2SbN3
_symmetry_space_group_name_H-M   'P 1'
_cell_length_a   10.43387755
_cell_length_b   5.99838515
_cell_length_c   5.43247600
_cell_angle_alpha   90.01596263
_cell_angle_beta   89.94703427
_cell_angle_gamma   89.90286596
_symmetry_Int_Tables_number   1
_chemical_formula_structural   Mg2SbN3
_chemical_formula_sum   'Mg8 Sb4 N12'
_cell_volume   339.99855640
_cell_formula_units_Z   4
loop_
 _symmetry_equiv_pos_site_id
 _symmetry_equiv_pos_as_xyz
  1  'x, y, z'
loop_
 _atom_site_type_symbol
 _atom_site_label
 _atom_site_symmetry_multiplicity
 _atom_site_fract_x
 _atom_site_fract_y
 _atom_site_fract_z
 _atom_site_occupancy
  Mg  Mg0  1  -0.82765628  0.15646088  0.93632381  1
  Mg  Mg1  1  -0.17699751  0.15031083  0.99915669  1
  Mg  Mg2  1  -0.17699208  0.83307158  0.49691584  1
  Mg  Mg3  1  -0.82474782  0.82803464  0.48924197  1
  Mg  Mg4  1  -0.33119590  0.65207787  0.00578781  1
  Mg  Mg5  1  -0.66823670  0.65411378  0.00581337  1
  Mg  Mg6  1  -0.66631861  0.33467465  0.50265601  1
  Mg  Mg7  1  -0.33016873  0.33224932  0.50579052  1
  Sb  Sb8  1  -0.00055626  0.66328018  0.88093604  1
  Sb  Sb9  1  -0.99920947  0.31760653  0.38234890  1
  Sb  Sb10  1  -0.49943303  0.16780316  0.99809107  1
  Sb  Sb11  1  -0.49966896  0.81832534  0.49780239  1
  N  N12  1  -0.16725144  0.82033734  0.89799665  1
  N  N13  1  -0.83384487  0.81755185  0.90265011  1
  N  N14  1  -0.99877879  0.34070884  0.99748483  1
  N  N15  1  -0.83543380  0.16595426  0.44503442  1
  N  N16  1  -0.16672993  0.16288627  0.39684442  1
  N  N17  1  -0.00124228  0.64066029  0.49517118  1
  N  N18  1  -0.65698888  0.32313164  0.89149619  1
  N  N19  1  -0.34053597  0.31992162  0.89131005  1
  N  N20  1  -0.65796746  0.66565201  0.39045090  1
  N  N21  1  -0.34112109  0.66447348  0.39132950  1
  N  N22  1  -0.49988012  0.83944232  0.87940343  1
  N  N23  1  -0.49904399  0.14665921  0.37953131  1
