# generated using pymatgen
data_Mg2SbN3
_symmetry_space_group_name_H-M   'P 1'
_cell_length_a   10.40847996
_cell_length_b   5.98289369
_cell_length_c   5.42480437
_cell_angle_alpha   89.91757575
_cell_angle_beta   90.00031455
_cell_angle_gamma   89.99999817
_symmetry_Int_Tables_number   1
_chemical_formula_structural   Mg2SbN3
_chemical_formula_sum   'Mg8 Sb4 N12'
_cell_volume   337.81756591
_cell_formula_units_Z   4
loop_
 _symmetry_equiv_pos_site_id
 _symmetry_equiv_pos_as_xyz
  1  'x, y, z'
loop_
 _atom_site_type_symbol
 _atom_site_label
 _atom_site_symmetry_multiplicity
 _atom_site_fract_x
 _atom_site_fract_y
 _atom_site_fract_z
 _atom_site_occupancy
  Mg  Mg0  1  -0.82832037  -0.15669649  0.00370824  1
  Mg  Mg1  1  -0.17167946  -0.15669629  0.00370792  1
  Mg  Mg2  1  -0.17649212  -0.83144405  0.49225444  1
  Mg  Mg3  1  -0.82350800  -0.83144384  0.49225469  1
  Mg  Mg4  1  -0.33102501  -0.65306831  0.00460059  1
  Mg  Mg5  1  -0.66897474  -0.65306831  0.00460037  1
  Mg  Mg6  1  -0.66878475  -0.33203431  0.50549028  1
  Mg  Mg7  1  -0.33121512  -0.33203426  0.50549053  1
  Sb  Sb8  1  -0.99999982  -0.66931141  0.88343802  1
  Sb  Sb9  1  -0.99999982  -0.30729308  0.48756605  1
  Sb  Sb10  1  -0.49999995  -0.16789725  0.99716903  1
  Sb  Sb11  1  -0.49999996  -0.81763758  0.49754848  1
  N  N12  1  -0.16757100  -0.82409643  0.89650454  1
  N  N13  1  -0.83242896  -0.82409682  0.89650461  1
  N  N14  1  -0.00000004  -0.32538399  0.89401787  1
  N  N15  1  -0.83520673  -0.16636178  0.39176382  1
  N  N16  1  -0.16479365  -0.16636170  0.39176356  1
  N  N17  1  -0.00000013  -0.64856873  0.48227780  1
  N  N18  1  -0.66005715  -0.31934565  0.89201457  1
  N  N19  1  -0.33994301  -0.31934571  0.89201462  1
  N  N20  1  -0.65865774  -0.66414494  0.39031376  1
  N  N21  1  -0.34134253  -0.66414483  0.39031378  1
  N  N22  1  -0.49999996  -0.83834379  0.87926822  1
  N  N23  1  -0.49999999  -0.14656502  0.37947111  1
