# generated using pymatgen
data_Mg2SbN3
_symmetry_space_group_name_H-M   'P 1'
_cell_length_a   10.41577791
_cell_length_b   5.98731086
_cell_length_c   5.44245652
_cell_angle_alpha   90.03191278
_cell_angle_beta   90.02290645
_cell_angle_gamma   90.07167486
_symmetry_Int_Tables_number   1
_chemical_formula_structural   Mg2SbN3
_chemical_formula_sum   'Mg8 Sb4 N12'
_cell_volume   339.40485018
_cell_formula_units_Z   4
loop_
 _symmetry_equiv_pos_site_id
 _symmetry_equiv_pos_as_xyz
  1  'x, y, z'
loop_
 _atom_site_type_symbol
 _atom_site_label
 _atom_site_symmetry_multiplicity
 _atom_site_fract_x
 _atom_site_fract_y
 _atom_site_fract_z
 _atom_site_occupancy
  Mg  Mg0  1  -0.83207687  -0.15210853  0.88311965  1
  Mg  Mg1  1  -0.17217172  -0.15566076  0.97320516  1
  Mg  Mg2  1  -0.16738595  -0.82592666  0.38892164  1
  Mg  Mg3  1  -0.83290780  -0.83544867  0.38325450  1
  Mg  Mg4  1  -0.33434593  -0.64850942  0.00278924  1
  Mg  Mg5  1  -0.66713525  -0.65143310  0.00329146  1
  Mg  Mg6  1  -0.66600794  -0.33503425  0.50317231  1
  Mg  Mg7  1  -0.33119389  -0.33090737  0.50683046  1
  Sb  Sb8  1  -0.99875912  -0.66820286  0.88617299  1
  Sb  Sb9  1  -0.99760710  -0.32053142  0.38567080  1
  Sb  Sb10  1  -0.50012209  -0.16604005  0.00035049  1
  Sb  Sb11  1  -0.50022926  -0.81767099  0.50018001  1
  N  N12  1  -0.15977115  -0.81253047  0.99003015  1
  N  N13  1  -0.84100248  -0.82256644  0.99338713  1
  N  N14  1  -0.99494942  -0.34189971  0.00319485  1
  N  N15  1  -0.84055716  -0.16515704  0.49430009  1
  N  N16  1  -0.16377329  -0.16748606  0.42139541  1
  N  N17  1  -0.99903879  -0.64763386  0.50619376  1
  N  N18  1  -0.65770677  -0.32105438  0.89353828  1
  N  N19  1  -0.34119658  -0.31778140  0.89192003  1
  N  N20  1  -0.65898032  -0.66558890  0.39402639  1
  N  N21  1  -0.34264966  -0.66206294  0.39411298  1
  N  N22  1  -0.50051467  -0.83815257  0.88082623  1
  N  N23  1  -0.49991676  -0.14599674  0.38074267  1
