# generated using pymatgen
data_Mg2SbN3
_symmetry_space_group_name_H-M   'P 1'
_cell_length_a   10.42040560
_cell_length_b   5.98381489
_cell_length_c   5.42711011
_cell_angle_alpha   89.90305384
_cell_angle_beta   90.00003180
_cell_angle_gamma   90.00000708
_symmetry_Int_Tables_number   1
_chemical_formula_structural   Mg2SbN3
_chemical_formula_sum   'Mg8 Sb4 N12'
_cell_volume   338.40033531
_cell_formula_units_Z   4
loop_
 _symmetry_equiv_pos_site_id
 _symmetry_equiv_pos_as_xyz
  1  'x, y, z'
loop_
 _atom_site_type_symbol
 _atom_site_label
 _atom_site_symmetry_multiplicity
 _atom_site_fract_x
 _atom_site_fract_y
 _atom_site_fract_z
 _atom_site_occupancy
  Mg  Mg0  1  -0.82726152  -0.15593320  0.99910116  1
  Mg  Mg1  1  -0.17273846  -0.15593318  0.99910112  1
  Mg  Mg2  1  -0.17700482  -0.83112100  0.49518972  1
  Mg  Mg3  1  -0.82299520  -0.83112096  0.49518975  1
  Mg  Mg4  1  -0.33057674  -0.65332821  0.00454220  1
  Mg  Mg5  1  -0.66942323  -0.65332823  0.00454218  1
  Mg  Mg6  1  -0.66809338  -0.33254508  0.50617482  1
  Mg  Mg7  1  -0.33190662  -0.33254506  0.50617483  1
  Sb  Sb8  1  -0.99999997  -0.66510941  0.88378864  1
  Sb  Sb9  1  -0.99999997  -0.31207319  0.43838689  1
  Sb  Sb10  1  -0.50000000  -0.16781817  0.99725266  1
  Sb  Sb11  1  -0.50000001  -0.81755496  0.49766102  1
  N  N12  1  -0.16704425  -0.82351380  0.89596864  1
  N  N13  1  -0.83295577  -0.82351382  0.89596868  1
  N  N14  1  -1.00000000  -0.33169309  0.93808375  1
  N  N15  1  -0.83300295  -0.16419569  0.39424284  1
  N  N16  1  -0.16699705  -0.16419570  0.39424278  1
  N  N17  1  -0.99999999  -0.64756853  0.48513192  1
  N  N18  1  -0.65958571  -0.31963019  0.89191927  1
  N  N19  1  -0.34041433  -0.31963019  0.89191925  1
  N  N20  1  -0.65861564  -0.66416213  0.39035207  1
  N  N21  1  -0.34138437  -0.66416210  0.39035206  1
  N  N22  1  -0.50000001  -0.83827177  0.87929823  1
  N  N23  1  -0.50000001  -0.14643694  0.37947244  1
