# generated using pymatgen
data_Mg2SbN3
_symmetry_space_group_name_H-M   'P 1'
_cell_length_a   10.38941800
_cell_length_b   5.97746589
_cell_length_c   5.42409237
_cell_angle_alpha   89.72027712
_cell_angle_beta   89.99989728
_cell_angle_gamma   89.99989178
_symmetry_Int_Tables_number   1
_chemical_formula_structural   Mg2SbN3
_chemical_formula_sum   'Mg8 Sb4 N12'
_cell_volume   336.84509453
_cell_formula_units_Z   4
loop_
 _symmetry_equiv_pos_site_id
 _symmetry_equiv_pos_as_xyz
  1  'x, y, z'
loop_
 _atom_site_type_symbol
 _atom_site_label
 _atom_site_symmetry_multiplicity
 _atom_site_fract_x
 _atom_site_fract_y
 _atom_site_fract_z
 _atom_site_occupancy
  Mg  Mg0  1  -0.82927366  0.15736435  0.00767191  1
  Mg  Mg1  1  -0.17072643  0.15736467  0.00767222  1
  Mg  Mg2  1  -0.17581250  0.83182525  0.48860199  1
  Mg  Mg3  1  -0.82418745  0.83182517  0.48860185  1
  Mg  Mg4  1  -0.33154416  0.65221892  0.00445552  1
  Mg  Mg5  1  -0.66845594  0.65221898  0.00445568  1
  Mg  Mg6  1  -0.66977044  0.33059223  0.50531997  1
  Mg  Mg7  1  -0.33022963  0.33059217  0.50531980  1
  Sb  Sb8  1  -0.00000085  0.67178146  0.88362233  1
  Sb  Sb9  1  -0.00000051  0.30764460  0.49657844  1
  Sb  Sb10  1  -0.49999964  0.16713448  0.99688444  1
  Sb  Sb11  1  -0.49999952  0.81648221  0.49761536  1
  N  N12  1  -0.16797833  0.82531758  0.89719490  1
  N  N13  1  -0.83202141  0.82531772  0.89719480  1
  N  N14  1  -1.00000010  0.32447113  0.88522993  1
  N  N15  1  -0.83661488  0.16760931  0.39170673  1
  N  N16  1  -0.16338428  0.16760976  0.39170719  1
  N  N17  1  -0.99999987  0.64953999  0.48073605  1
  N  N18  1  -0.66067400  0.31873998  0.89230244  1
  N  N19  1  -0.33932652  0.31873962  0.89230262  1
  N  N20  1  -0.65897808  0.66363030  0.39016853  1
  N  N21  1  -0.34102180  0.66363068  0.39016883  1
  N  N22  1  -0.50000008  0.83770965  0.87912352  1
  N  N23  1  -0.49999990  0.14602441  0.37942187  1
