# generated using pymatgen
data_Mg2SbN3
_symmetry_space_group_name_H-M   'P 1'
_cell_length_a   5.41558493
_cell_length_b   5.94423246
_cell_length_c   10.33457608
_cell_angle_alpha   90.00000005
_cell_angle_beta   89.99999704
_cell_angle_gamma   90.00000935
_symmetry_Int_Tables_number   1
_chemical_formula_structural   Mg2SbN3
_chemical_formula_sum   'Mg8 Sb4 N12'
_cell_volume   332.68546197
_cell_formula_units_Z   4
loop_
 _symmetry_equiv_pos_site_id
 _symmetry_equiv_pos_as_xyz
  1  'x, y, z'
loop_
 _atom_site_type_symbol
 _atom_site_label
 _atom_site_symmetry_multiplicity
 _atom_site_fract_x
 _atom_site_fract_y
 _atom_site_fract_z
 _atom_site_occupancy
  Mg  Mg0  1  0.99184308  0.15421143  0.82963826  1
  Mg  Mg1  1  0.99184308  0.15421143  0.17036172  1
  Mg  Mg2  1  0.49184309  0.83040394  0.17036174  1
  Mg  Mg3  1  0.49184309  0.83040394  0.82963824  1
  Mg  Mg4  1  0.99184308  0.65421143  0.32963826  1
  Mg  Mg5  1  0.99184308  0.65421143  0.67036172  1
  Mg  Mg6  1  0.49184309  0.33040394  0.67036174  1
  Mg  Mg7  1  0.49184310  0.33040394  0.32963824  1
  Sb  Sb8  1  0.98485789  0.66807522  0.99999999  1
  Sb  Sb9  1  0.48485788  0.31654017  0.99999999  1
  Sb  Sb10  1  0.98485790  0.16807522  0.49999999  1
  Sb  Sb11  1  0.48485789  0.81654018  0.49999999  1
  N  N12  1  0.87932518  0.81863564  0.16156694  1
  N  N13  1  0.87932519  0.81863564  0.83843305  1
  N  N14  1  0.86725453  0.33707920  0.99999999  1
  N  N15  1  0.37932518  0.16597957  0.83843308  1
  N  N16  1  0.37932517  0.16597957  0.16156691  1
  N  N17  1  0.36725454  0.64753620  0.99999999  1
  N  N18  1  0.87932519  0.31863564  0.66156694  1
  N  N19  1  0.87932518  0.31863564  0.33843305  1
  N  N20  1  0.37932518  0.66597958  0.66156691  1
  N  N21  1  0.37932518  0.66597957  0.33843308  1
  N  N22  1  0.86725453  0.83707920  0.50000000  1
  N  N23  1  0.36725454  0.14753620  0.50000000  1
