# generated using pymatgen
data_Mg2SbN3
_symmetry_space_group_name_H-M   'P 1'
_cell_length_a   5.44399179
_cell_length_b   5.98747498
_cell_length_c   10.41395339
_cell_angle_alpha   90.08277786
_cell_angle_beta   89.98067210
_cell_angle_gamma   89.97965858
_symmetry_Int_Tables_number   1
_chemical_formula_structural   Mg2SbN3
_chemical_formula_sum   'Mg8 Sb4 N12'
_cell_volume   339.45037805
_cell_formula_units_Z   4
loop_
 _symmetry_equiv_pos_site_id
 _symmetry_equiv_pos_as_xyz
  1  'x, y, z'
loop_
 _atom_site_type_symbol
 _atom_site_label
 _atom_site_symmetry_multiplicity
 _atom_site_fract_x
 _atom_site_fract_y
 _atom_site_fract_z
 _atom_site_occupancy
  Mg  Mg0  1  0.88288995  0.15194992  0.83216715  1
  Mg  Mg1  1  0.96661926  0.15548147  0.17179013  1
  Mg  Mg2  1  0.38930343  0.82662280  0.16738424  1
  Mg  Mg3  1  0.38308302  0.83538166  0.83287524  1
  Mg  Mg4  1  0.00321137  0.64862497  0.33428408  1
  Mg  Mg5  1  0.00323727  0.65120455  0.66708711  1
  Mg  Mg6  1  0.50316773  0.33486363  0.66603702  1
  Mg  Mg7  1  0.50682583  0.33122751  0.33141168  1
  Sb  Sb8  1  0.88607087  0.66819084  0.99880570  1
  Sb  Sb9  1  0.38576564  0.32044677  0.99772022  1
  Sb  Sb10  1  0.00051847  0.16591486  0.50019952  1
  Sb  Sb11  1  0.50027505  0.81761648  0.50023131  1
  N  N12  1  0.99003219  0.81301922  0.15977064  1
  N  N13  1  0.99328198  0.82240126  0.84099808  1
  N  N14  1  0.00340516  0.34179474  0.99529216  1
  N  N15  1  0.49406336  0.16511975  0.84052086  1
  N  N16  1  0.42729953  0.16742245  0.16341276  1
  N  N17  1  0.50616476  0.64767128  0.99895747  1
  N  N18  1  0.89347196  0.32083975  0.65780618  1
  N  N19  1  0.89221478  0.31804146  0.34141411  1
  N  N20  1  0.39388589  0.66536737  0.65889562  1
  N  N21  1  0.39426036  0.66223686  0.34252544  1
  N  N22  1  0.88084536  0.83806651  0.50049128  1
  N  N23  1  0.38079271  0.14587846  0.49992201  1
