# generated using pymatgen
data_Mg2SbN3
_symmetry_space_group_name_H-M   'P 1'
_cell_length_a   5.44552732
_cell_length_b   5.98256195
_cell_length_c   10.41194484
_cell_angle_alpha   90.03975884
_cell_angle_beta   89.98275253
_cell_angle_gamma   89.97664405
_symmetry_Int_Tables_number   1
_chemical_formula_structural   Mg2SbN3
_chemical_formula_sum   'Mg8 Sb4 N12'
_cell_volume   339.20234329
_cell_formula_units_Z   4
loop_
 _symmetry_equiv_pos_site_id
 _symmetry_equiv_pos_as_xyz
  1  'x, y, z'
loop_
 _atom_site_type_symbol
 _atom_site_label
 _atom_site_symmetry_multiplicity
 _atom_site_fract_x
 _atom_site_fract_y
 _atom_site_fract_z
 _atom_site_occupancy
  Mg  Mg0  1  0.88314155  0.15164325  0.83237538  1
  Mg  Mg1  1  0.92316425  0.15328003  0.16928417  1
  Mg  Mg2  1  0.38726603  0.82932215  0.16716665  1
  Mg  Mg3  1  0.38345433  0.83523312  0.83294992  1
  Mg  Mg4  1  0.00376625  0.64928371  0.33407098  1
  Mg  Mg5  1  0.00340581  0.65108456  0.66704876  1
  Mg  Mg6  1  0.50324119  0.33476457  0.66631422  1
  Mg  Mg7  1  0.50561045  0.33246052  0.33237956  1
  Sb  Sb8  1  0.88627677  0.66765544  0.99915584  1
  Sb  Sb9  1  0.38687752  0.31907527  0.99881995  1
  Sb  Sb10  1  0.00094988  0.16606784  0.50031818  1
  Sb  Sb11  1  0.50049650  0.81779197  0.50022216  1
  N  N12  1  0.99238071  0.81515823  0.15929842  1
  N  N13  1  0.99341316  0.82157906  0.84114663  1
  N  N14  1  0.00525436  0.34024135  0.99719010  1
  N  N15  1  0.49378391  0.16539599  0.84062320  1
  N  N16  1  0.46463107  0.16573902  0.16113213  1
  N  N17  1  0.50640051  0.64726461  0.99912443  1
  N  N18  1  0.89359623  0.32062818  0.65805261  1
  N  N19  1  0.89347558  0.31889423  0.34182130  1
  N  N20  1  0.39384384  0.66540651  0.65884088  1
  N  N21  1  0.39428780  0.66317804  0.34226588  1
  N  N22  1  0.88093651  0.83810689  0.50035947  1
  N  N23  1  0.38103247  0.14612999  0.50003915  1
