# generated using pymatgen
data_Mg2SbN3
_symmetry_space_group_name_H-M   'P 1'
_cell_length_a   10.41774285
_cell_length_b   5.98394678
_cell_length_c   5.42634256
_cell_angle_alpha   89.90149763
_cell_angle_beta   90.00016283
_cell_angle_gamma   90.00000453
_symmetry_Int_Tables_number   1
_chemical_formula_structural   Mg2SbN3
_chemical_formula_sum   'Mg8 Sb4 N12'
_cell_volume   338.27345607
_cell_formula_units_Z   4
loop_
 _symmetry_equiv_pos_site_id
 _symmetry_equiv_pos_as_xyz
  1  'x, y, z'
loop_
 _atom_site_type_symbol
 _atom_site_label
 _atom_site_symmetry_multiplicity
 _atom_site_fract_x
 _atom_site_fract_y
 _atom_site_fract_z
 _atom_site_occupancy
  Mg  Mg0  1  -0.82760421  -0.15620444  0.00009212  1
  Mg  Mg1  1  -0.17239573  -0.15620437  0.00009200  1
  Mg  Mg2  1  -0.17689981  -0.83112430  0.49458943  1
  Mg  Mg3  1  -0.82310022  -0.83112419  0.49458955  1
  Mg  Mg4  1  -0.33063885  -0.65328658  0.00453488  1
  Mg  Mg5  1  -0.66936107  -0.65328657  0.00453481  1
  Mg  Mg6  1  -0.66818647  -0.33249389  0.50602474  1
  Mg  Mg7  1  -0.33181349  -0.33249385  0.50602482  1
  Sb  Sb8  1  -0.99999975  -0.66610396  0.88390530  1
  Sb  Sb9  1  -0.99999974  -0.31045325  0.45563335  1
  Sb  Sb10  1  -0.50000009  -0.16782732  0.99721438  1
  Sb  Sb11  1  -0.50000011  -0.81758348  0.49764664  1
  N  N12  1  -0.16715728  -0.82368826  0.89597388  1
  N  N13  1  -0.83284288  -0.82368826  0.89597394  1
  N  N14  1  -0.00000002  -0.32980814  0.92372708  1
  N  N15  1  -0.83351285  -0.16479322  0.39321098  1
  N  N16  1  -0.16648743  -0.16479310  0.39321082  1
  N  N17  1  -0.00000004  -0.64820347  0.48378570  1
  N  N18  1  -0.65967649  -0.31956928  0.89191923  1
  N  N19  1  -0.34032350  -0.31956937  0.89191917  1
  N  N20  1  -0.65861690  -0.66417438  0.39034037  1
  N  N21  1  -0.34138307  -0.66417424  0.39034028  1
  N  N22  1  -0.49999999  -0.83827981  0.87930114  1
  N  N23  1  -0.50000000  -0.14645688  0.37947233  1
