# generated using pymatgen
data_Mg2SbN3
_symmetry_space_group_name_H-M   'P 1'
_cell_length_a   10.43381385
_cell_length_b   5.99704213
_cell_length_c   5.43170822
_cell_angle_alpha   90.01573256
_cell_angle_beta   89.94736366
_cell_angle_gamma   89.91831495
_symmetry_Int_Tables_number   1
_chemical_formula_structural   Mg2SbN3
_chemical_formula_sum   'Mg8 Sb4 N12'
_cell_volume   339.87246042
_cell_formula_units_Z   4
loop_
 _symmetry_equiv_pos_site_id
 _symmetry_equiv_pos_as_xyz
  1  'x, y, z'
loop_
 _atom_site_type_symbol
 _atom_site_label
 _atom_site_symmetry_multiplicity
 _atom_site_fract_x
 _atom_site_fract_y
 _atom_site_fract_z
 _atom_site_occupancy
  Mg  Mg0  1  -0.82651280  0.15538881  0.95453438  1
  Mg  Mg1  1  -0.17702453  0.15050170  0.99877286  1
  Mg  Mg2  1  -0.17703021  0.83302294  0.49692063  1
  Mg  Mg3  1  -0.82447437  0.82898053  0.49080838  1
  Mg  Mg4  1  -0.33118407  0.65218158  0.00573713  1
  Mg  Mg5  1  -0.66835696  0.65396974  0.00560807  1
  Mg  Mg6  1  -0.66688208  0.33413783  0.50312647  1
  Mg  Mg7  1  -0.33031244  0.33227367  0.50574080  1
  Sb  Sb8  1  -0.00054746  0.66352845  0.88082686  1
  Sb  Sb9  1  -0.99947369  0.31796385  0.38215211  1
  Sb  Sb10  1  -0.49953038  0.16783399  0.99791940  1
  Sb  Sb11  1  -0.49974258  0.81821609  0.49766953  1
  N  N12  1  -0.16725943  0.82051872  0.89790533  1
  N  N13  1  -0.83373582  0.81823237  0.90089534  1
  N  N14  1  -0.99925442  0.34113968  0.99669898  1
  N  N15  1  -0.83446774  0.16504117  0.42940561  1
  N  N16  1  -0.16684334  0.16287704  0.39696411  1
  N  N17  1  -0.00108882  0.64087702  0.49507350  1
  N  N18  1  -0.65735500  0.32267398  0.89104150  1
  N  N19  1  -0.34064117  0.32000955  0.89126469  1
  N  N20  1  -0.65809248  0.66548731  0.39042512  1
  N  N21  1  -0.34113774  0.66448778  0.39128620  1
  N  N22  1  -0.49989972  0.83936695  0.87935418  1
  N  N23  1  -0.49915272  0.14667711  0.37943623  1
