# generated using pymatgen
data_Mg2SbN3
_symmetry_space_group_name_H-M   'P 1'
_cell_length_a   10.40355300
_cell_length_b   5.96770731
_cell_length_c   5.44936628
_cell_angle_alpha   90.00000952
_cell_angle_beta   89.99999982
_cell_angle_gamma   90.00000020
_symmetry_Int_Tables_number   1
_chemical_formula_structural   Mg2SbN3
_chemical_formula_sum   'Mg8 Sb4 N12'
_cell_volume   338.32586356
_cell_formula_units_Z   4
loop_
 _symmetry_equiv_pos_site_id
 _symmetry_equiv_pos_as_xyz
  1  'x, y, z'
loop_
 _atom_site_type_symbol
 _atom_site_label
 _atom_site_symmetry_multiplicity
 _atom_site_fract_x
 _atom_site_fract_y
 _atom_site_fract_z
 _atom_site_occupancy
  Mg  Mg0  1  -0.83313775  0.15049704  0.90429662  1
  Mg  Mg1  1  -0.16686224  0.15049703  0.90429662  1
  Mg  Mg2  1  -0.16686226  0.83411832  0.40429660  1
  Mg  Mg3  1  -0.83313773  0.83411832  0.40429661  1
  Mg  Mg4  1  -0.33313776  0.65049700  0.02389193  1
  Mg  Mg5  1  -0.66686223  0.65049701  0.02389192  1
  Mg  Mg6  1  -0.66686225  0.33411832  0.52389197  1
  Mg  Mg7  1  -0.33313774  0.33411832  0.52389197  1
  Sb  Sb8  1  -0.99999999  0.66650763  0.90731275  1
  Sb  Sb9  1  -0.99999999  0.31810772  0.40731272  1
  Sb  Sb10  1  -0.50000000  0.16650755  0.02087569  1
  Sb  Sb11  1  -0.49999999  0.81810772  0.52087564  1
  N  N12  1  -0.15860044  0.81946540  0.01425559  1
  N  N13  1  -0.84139955  0.81946541  0.01425559  1
  N  N14  1  -0.99999999  0.33773084  0.02724117  1
  N  N15  1  -0.84139959  0.16514988  0.51425560  1
  N  N16  1  -0.15860039  0.16514988  0.51425560  1
  N  N17  1  -0.99999999  0.64688457  0.52724123  1
  N  N18  1  -0.65860042  0.31946539  0.91393296  1
  N  N19  1  -0.34139956  0.31946539  0.91393297  1
  N  N20  1  -0.65860041  0.66514980  0.41393291  1
  N  N21  1  -0.34139958  0.66514980  0.41393292  1
  N  N22  1  -0.49999999  0.83773075  0.90094708  1
  N  N23  1  -0.49999999  0.14688455  0.40094716  1
