# generated using pymatgen
data_Mg2SbN3
_symmetry_space_group_name_H-M   'P 1'
_cell_length_a   10.36770407
_cell_length_b   5.96277475
_cell_length_c   5.41943097
_cell_angle_alpha   90.09719587
_cell_angle_beta   90.00050110
_cell_angle_gamma   90.00004164
_symmetry_Int_Tables_number   1
_chemical_formula_structural   Mg2SbN3
_chemical_formula_sum   'Mg8 Sb4 N12'
_cell_volume   335.03028013
_cell_formula_units_Z   4
loop_
 _symmetry_equiv_pos_site_id
 _symmetry_equiv_pos_as_xyz
  1  'x, y, z'
loop_
 _atom_site_type_symbol
 _atom_site_label
 _atom_site_symmetry_multiplicity
 _atom_site_fract_x
 _atom_site_fract_y
 _atom_site_fract_z
 _atom_site_occupancy
  Mg  Mg0  1  -0.82884251  -0.15676563  0.00563926  1
  Mg  Mg1  1  -0.17115734  -0.15676549  0.00563901  1
  Mg  Mg2  1  -0.17226556  -0.82952970  0.49609024  1
  Mg  Mg3  1  -0.82773452  -0.82952947  0.49609042  1
  Mg  Mg4  1  -0.33134418  -0.65300393  0.00422259  1
  Mg  Mg5  1  -0.66865540  -0.65300399  0.00422221  1
  Mg  Mg6  1  -0.67021639  -0.33027258  0.50458565  1
  Mg  Mg7  1  -0.32978335  -0.33027250  0.50458601  1
  Sb  Sb8  1  -0.00000183  -0.66978439  0.97435665  1
  Sb  Sb9  1  -0.00000107  -0.31465811  0.49406064  1
  Sb  Sb10  1  -0.49999860  -0.16763646  0.99728803  1
  Sb  Sb11  1  -0.49999842  -0.81668243  0.49708351  1
  N  N12  1  -0.16465585  -0.82147845  0.89104084  1
  N  N13  1  -0.83534262  -0.82147994  0.89104010  1
  N  N14  1  -0.99999974  -0.33272289  0.87977868  1
  N  N15  1  -0.83750320  -0.16583697  0.39152339  1
  N  N16  1  -0.16249591  -0.16583788  0.39152373  1
  N  N17  1  -0.99999968  -0.64877245  0.40173890  1
  N  N18  1  -0.66078343  -0.31891761  0.89187952  1
  N  N19  1  -0.33921815  -0.31891683  0.89188011  1
  N  N20  1  -0.65996482  -0.66447684  0.39057023  1
  N  N21  1  -0.34003685  -0.66447768  0.39057098  1
  N  N22  1  -0.50000031  -0.83778711  0.87909998  1
  N  N23  1  -0.50000027  -0.14677525  0.37954626  1
