# generated using pymatgen
data_Mg2SbN3
_symmetry_space_group_name_H-M   'P 1'
_cell_length_a   10.42751687
_cell_length_b   5.98306739
_cell_length_c   5.42940971
_cell_angle_alpha   89.92823508
_cell_angle_beta   89.99960483
_cell_angle_gamma   90.00000455
_symmetry_Int_Tables_number   1
_chemical_formula_structural   Mg2SbN3
_chemical_formula_sum   'Mg8 Sb4 N12'
_cell_volume   338.73265835
_cell_formula_units_Z   4
loop_
 _symmetry_equiv_pos_site_id
 _symmetry_equiv_pos_as_xyz
  1  'x, y, z'
loop_
 _atom_site_type_symbol
 _atom_site_label
 _atom_site_symmetry_multiplicity
 _atom_site_fract_x
 _atom_site_fract_y
 _atom_site_fract_z
 _atom_site_occupancy
  Mg  Mg0  1  -0.82470701  -0.15338462  0.99675566  1
  Mg  Mg1  1  -0.17529293  -0.15338494  0.99675601  1
  Mg  Mg2  1  -0.17705337  -0.83210633  0.49606538  1
  Mg  Mg3  1  -0.82294655  -0.83210665  0.49606507  1
  Mg  Mg4  1  -0.33073437  -0.65319828  0.00484525  1
  Mg  Mg5  1  -0.66926588  -0.65319830  0.00484545  1
  Mg  Mg6  1  -0.66846104  -0.33224961  0.50593242  1
  Mg  Mg7  1  -0.33153921  -0.33224961  0.50593219  1
  Sb  Sb8  1  -0.99999985  -0.66418156  0.88099076  1
  Sb  Sb9  1  -0.99999980  -0.31789331  0.38809875  1
  Sb  Sb10  1  -0.50000029  -0.16782083  0.99751661  1
  Sb  Sb11  1  -0.50000032  -0.81744169  0.49746481  1
  N  N12  1  -0.16679924  -0.82206789  0.89640414  1
  N  N13  1  -0.83320108  -0.82206730  0.89640399  1
  N  N14  1  -0.99999991  -0.33813160  0.98320012  1
  N  N15  1  -0.83262167  -0.16336332  0.39656261  1
  N  N16  1  -0.16737864  -0.16336275  0.39656271  1
  N  N17  1  -0.99999991  -0.64388639  0.49115158  1
  N  N18  1  -0.65921203  -0.31998129  0.89146159  1
  N  N19  1  -0.34078749  -0.31998139  0.89146146  1
  N  N20  1  -0.65867988  -0.66423857  0.39046154  1
  N  N21  1  -0.34131956  -0.66423844  0.39046142  1
  N  N22  1  -0.49999999  -0.83837088  0.87923692  1
  N  N23  1  -0.49999998  -0.14647902  0.37942048  1
