# generated using pymatgen
data_Mg2SbN3
_symmetry_space_group_name_H-M   'P 1'
_cell_length_a   10.33744533
_cell_length_b   5.94586580
_cell_length_c   5.41788962
_cell_angle_alpha   90.04432310
_cell_angle_beta   90.00047732
_cell_angle_gamma   90.00016346
_symmetry_Int_Tables_number   1
_chemical_formula_structural   Mg2SbN3
_chemical_formula_sum   'Mg8 Sb4 N12'
_cell_volume   333.01082556
_cell_formula_units_Z   4
loop_
 _symmetry_equiv_pos_site_id
 _symmetry_equiv_pos_as_xyz
  1  'x, y, z'
loop_
 _atom_site_type_symbol
 _atom_site_label
 _atom_site_symmetry_multiplicity
 _atom_site_fract_x
 _atom_site_fract_y
 _atom_site_fract_z
 _atom_site_occupancy
  Mg  Mg0  1  -0.82956275  -0.15446115  0.00329769  1
  Mg  Mg1  1  -0.17043681  -0.15446113  0.00329707  1
  Mg  Mg2  1  -0.17053182  -0.83026947  0.50259636  1
  Mg  Mg3  1  -0.82946811  -0.83026927  0.50259700  1
  Mg  Mg4  1  -0.32979320  -0.65410784  0.00334506  1
  Mg  Mg5  1  -0.67020635  -0.65410786  0.00334445  1
  Mg  Mg6  1  -0.67031529  -0.33029822  0.50349467  1
  Mg  Mg7  1  -0.32968462  -0.33029802  0.50349531  1
  Sb  Sb8  1  -0.99999975  -0.66830031  0.99557368  1
  Sb  Sb9  1  0.00000012  -0.31648318  0.49603470  1
  Sb  Sb10  1  -0.49999973  -0.16794332  0.99646339  1
  Sb  Sb11  1  -0.49999987  -0.81644808  0.49645445  1
  N  N12  1  -0.16174393  -0.81883155  0.89053147  1
  N  N13  1  -0.83825680  -0.81883165  0.89053174  1
  N  N14  1  -0.00000007  -0.33711912  0.87844035  1
  N  N15  1  -0.83837053  -0.16607786  0.39068736  1
  N  N16  1  -0.16162961  -0.16607815  0.39068708  1
  N  N17  1  -0.99999997  -0.64760916  0.37862251  1
  N  N18  1  -0.66144730  -0.31869581  0.89085721  1
  N  N19  1  -0.33855342  -0.31869589  0.89085745  1
  N  N20  1  -0.66139363  -0.66575932  0.39068670  1
  N  N21  1  -0.33860651  -0.66575902  0.39068697  1
  N  N22  1  -0.50000006  -0.83712595  0.87869561  1
  N  N23  1  -0.49999995  -0.14736103  0.37876215  1
