# generated using pymatgen
data_Mg2SbN3
_symmetry_space_group_name_H-M   'P 1'
_cell_length_a   5.43554742
_cell_length_b   5.99709557
_cell_length_c   10.42279734
_cell_angle_alpha   90.06982747
_cell_angle_beta   90.05132669
_cell_angle_gamma   90.02291893
_symmetry_Int_Tables_number   1
_chemical_formula_structural   Mg2SbN3
_chemical_formula_sum   'Mg8 Sb4 N12'
_cell_volume   339.75669257
_cell_formula_units_Z   4
loop_
 _symmetry_equiv_pos_site_id
 _symmetry_equiv_pos_as_xyz
  1  'x, y, z'
loop_
 _atom_site_type_symbol
 _atom_site_label
 _atom_site_symmetry_multiplicity
 _atom_site_fract_x
 _atom_site_fract_y
 _atom_site_fract_z
 _atom_site_occupancy
  Mg  Mg0  1  0.88503734  0.15839953  0.83197315  1
  Mg  Mg1  1  0.00051247  0.14913394  0.17651964  1
  Mg  Mg2  1  0.49877436  0.83307428  0.17666010  1
  Mg  Mg3  1  0.45179258  0.82832814  0.82772141  1
  Mg  Mg4  1  0.00613965  0.65130607  0.33079673  1
  Mg  Mg5  1  0.00455227  0.65336028  0.66731053  1
  Mg  Mg6  1  0.50118270  0.33508481  0.66479800  1
  Mg  Mg7  1  0.50631507  0.33184025  0.32955511  1
  Sb  Sb8  1  0.88305795  0.66413321  0.99933020  1
  Sb  Sb9  1  0.38199652  0.31767430  0.99824323  1
  Sb  Sb10  1  0.99806850  0.16736501  0.49947171  1
  Sb  Sb11  1  0.49863621  0.81814044  0.49920264  1
  N  N12  1  0.89794375  0.81928067  0.16694707  1
  N  N13  1  0.93614661  0.82006006  0.83584648  1
  N  N14  1  0.00013285  0.34006774  0.99702513  1
  N  N15  1  0.48883849  0.16827478  0.83952787  1
  N  N16  1  0.39714475  0.16285386  0.16586072  1
  N  N17  1  0.49759773  0.64082995  0.99999353  1
  N  N18  1  0.89235268  0.32292976  0.65680243  1
  N  N19  1  0.89166659  0.31899366  0.33999888  1
  N  N20  1  0.39096257  0.66510533  0.65737007  1
  N  N21  1  0.39154403  0.66409437  0.34070913  1
  N  N22  1  0.87963033  0.83894393  0.49947161  1
  N  N23  1  0.37954141  0.14611349  0.49886461  1
