# generated using pymatgen
data_Mg2SbN3
_symmetry_space_group_name_H-M   'P 1'
_cell_length_a   10.38648478
_cell_length_b   5.97401394
_cell_length_c   5.42326878
_cell_angle_alpha   89.90740826
_cell_angle_beta   89.99991143
_cell_angle_gamma   89.99995133
_symmetry_Int_Tables_number   1
_chemical_formula_structural   Mg2SbN3
_chemical_formula_sum   'Mg8 Sb4 N12'
_cell_volume   336.50799124
_cell_formula_units_Z   4
loop_
 _symmetry_equiv_pos_site_id
 _symmetry_equiv_pos_as_xyz
  1  'x, y, z'
loop_
 _atom_site_type_symbol
 _atom_site_label
 _atom_site_symmetry_multiplicity
 _atom_site_fract_x
 _atom_site_fract_y
 _atom_site_fract_z
 _atom_site_occupancy
  Mg  Mg0  1  -0.82895737  0.15750065  0.00729220  1
  Mg  Mg1  1  -0.17104260  0.15750074  0.00729228  1
  Mg  Mg2  1  -0.17448992  0.83062260  0.49085040  1
  Mg  Mg3  1  -0.82551010  0.83062262  0.49085033  1
  Mg  Mg4  1  -0.33171088  0.65254823  0.00476202  1
  Mg  Mg5  1  -0.66828913  0.65254826  0.00476208  1
  Mg  Mg6  1  -0.66999695  0.33059440  0.50503611  1
  Mg  Mg7  1  -0.33000316  0.33059436  0.50503605  1
  Sb  Sb8  1  -0.99999995  0.67123570  0.89783805  1
  Sb  Sb9  1  -1.00000000  0.30994027  0.49435415  1
  Sb  Sb10  1  -0.50000006  0.16760282  0.99718612  1
  Sb  Sb11  1  -0.50000009  0.81684929  0.49738006  1
  N  N12  1  -0.16776182  0.82466954  0.89584342  1
  N  N13  1  -0.83223828  0.82466939  0.89584338  1
  N  N14  1  0.00000003  0.32559534  0.88429723  1
  N  N15  1  -0.83676181  0.16631774  0.39189624  1
  N  N16  1  -0.16323800  0.16631780  0.39189628  1
  N  N17  1  -0.99999991  0.64932242  0.46756861  1
  N  N18  1  -0.66065182  0.31892671  0.89218327  1
  N  N19  1  -0.33934825  0.31892665  0.89218322  1
  N  N20  1  -0.65928355  0.66399968  0.39050880  1
  N  N21  1  -0.34071628  0.66399968  0.39050879  1
  N  N22  1  -0.50000006  0.83798500  0.87914552  1
  N  N23  1  -0.50000002  0.14649470  0.37954232  1
