# generated using pymatgen
data_Mg2SbN3
_symmetry_space_group_name_H-M   'P 1'
_cell_length_a   5.41943097
_cell_length_b   5.96277475
_cell_length_c   10.36770407
_cell_angle_alpha   90.00004164
_cell_angle_beta   89.99949890
_cell_angle_gamma   89.90280413
_symmetry_Int_Tables_number   1
_chemical_formula_structural   Mg2SbN3
_chemical_formula_sum   'Mg8 Sb4 N12'
_cell_volume   335.03028013
_cell_formula_units_Z   4
loop_
 _symmetry_equiv_pos_site_id
 _symmetry_equiv_pos_as_xyz
  1  'x, y, z'
loop_
 _atom_site_type_symbol
 _atom_site_label
 _atom_site_symmetry_multiplicity
 _atom_site_fract_x
 _atom_site_fract_y
 _atom_site_fract_z
 _atom_site_occupancy
  Mg  Mg0  1  0.00563926  0.15676563  0.82884251  1
  Mg  Mg1  1  0.00563901  0.15676549  0.17115734  1
  Mg  Mg2  1  0.49609024  0.82952970  0.17226556  1
  Mg  Mg3  1  0.49609042  0.82952947  0.82773452  1
  Mg  Mg4  1  0.00422259  0.65300393  0.33134418  1
  Mg  Mg5  1  0.00422221  0.65300399  0.66865540  1
  Mg  Mg6  1  0.50458565  0.33027258  0.67021639  1
  Mg  Mg7  1  0.50458601  0.33027250  0.32978335  1
  Sb  Sb8  1  0.97435665  0.66978439  0.00000183  1
  Sb  Sb9  1  0.49406064  0.31465811  0.00000107  1
  Sb  Sb10  1  0.99728803  0.16763646  0.49999860  1
  Sb  Sb11  1  0.49708351  0.81668243  0.49999842  1
  N  N12  1  0.89104084  0.82147845  0.16465585  1
  N  N13  1  0.89104010  0.82147994  0.83534262  1
  N  N14  1  0.87977868  0.33272289  0.99999974  1
  N  N15  1  0.39152339  0.16583697  0.83750320  1
  N  N16  1  0.39152373  0.16583788  0.16249591  1
  N  N17  1  0.40173890  0.64877245  0.99999968  1
  N  N18  1  0.89187952  0.31891761  0.66078343  1
  N  N19  1  0.89188011  0.31891683  0.33921815  1
  N  N20  1  0.39057023  0.66447684  0.65996482  1
  N  N21  1  0.39057098  0.66447768  0.34003685  1
  N  N22  1  0.87909998  0.83778711  0.50000031  1
  N  N23  1  0.37954626  0.14677525  0.50000027  1
