# generated using pymatgen
data_Mg2SbN3
_symmetry_space_group_name_H-M   'P 1'
_cell_length_a   10.36001452
_cell_length_b   5.95842370
_cell_length_c   5.41866299
_cell_angle_alpha   90.09536940
_cell_angle_beta   90.00059989
_cell_angle_gamma   90.00000620
_symmetry_Int_Tables_number   1
_chemical_formula_structural   Mg2SbN3
_chemical_formula_sum   'Mg8 Sb4 N12'
_cell_volume   334.49011378
_cell_formula_units_Z   4
loop_
 _symmetry_equiv_pos_site_id
 _symmetry_equiv_pos_as_xyz
  1  'x, y, z'
loop_
 _atom_site_type_symbol
 _atom_site_label
 _atom_site_symmetry_multiplicity
 _atom_site_fract_x
 _atom_site_fract_y
 _atom_site_fract_z
 _atom_site_occupancy
  Mg  Mg0  1  -0.82898562  -0.15610469  0.00479259  1
  Mg  Mg1  1  -0.17101408  -0.15610452  0.00479212  1
  Mg  Mg2  1  -0.17178554  -0.82962541  0.49816608  1
  Mg  Mg3  1  -0.82821429  -0.82962526  0.49816650  1
  Mg  Mg4  1  -0.33094144  -0.65335496  0.00392844  1
  Mg  Mg5  1  -0.66905827  -0.65335489  0.00392798  1
  Mg  Mg6  1  -0.67019413  -0.33022597  0.50447760  1
  Mg  Mg7  1  -0.32980564  -0.33022582  0.50447806  1
  Sb  Sb8  1  -0.99999931  -0.66939695  0.98678455  1
  Sb  Sb9  1  -0.99999966  -0.31539788  0.49491640  1
  Sb  Sb10  1  -0.49999979  -0.16766134  0.99722802  1
  Sb  Sb11  1  -0.49999986  -0.81656910  0.49705682  1
  N  N12  1  -0.16347587  -0.82032179  0.89075843  1
  N  N13  1  -0.83652500  -0.82032162  0.89075883  1
  N  N14  1  -0.00000007  -0.33489334  0.87918126  1
  N  N15  1  -0.83780640  -0.16605650  0.39137303  1
  N  N16  1  -0.16219418  -0.16605646  0.39137277  1
  N  N17  1  -0.00000008  -0.64843470  0.38848535  1
  N  N18  1  -0.66088633  -0.31888709  0.89175294  1
  N  N19  1  -0.33911408  -0.31888718  0.89175309  1
  N  N20  1  -0.66029229  -0.66469584  0.39065113  1
  N  N21  1  -0.33970806  -0.66469565  0.39065125  1
  N  N22  1  -0.50000000  -0.83764311  0.87909119  1
  N  N23  1  -0.50000000  -0.14684454  0.37951249  1
