# generated using pymatgen
data_Sc5Al13N18
_symmetry_space_group_name_H-M   'P 1'
_cell_length_a   9.87300309
_cell_length_b   9.83423175
_cell_length_c   10.26594102
_cell_angle_alpha   89.32280852
_cell_angle_beta   90.01061321
_cell_angle_gamma   60.03330490
_symmetry_Int_Tables_number   1
_chemical_formula_structural   Sc5Al13N18
_chemical_formula_sum   'Sc10 Al26 N36'
_cell_volume   863.42316709
_cell_formula_units_Z   2
loop_
 _symmetry_equiv_pos_site_id
 _symmetry_equiv_pos_as_xyz
  1  'x, y, z'
loop_
 _atom_site_type_symbol
 _atom_site_label
 _atom_site_symmetry_multiplicity
 _atom_site_fract_x
 _atom_site_fract_y
 _atom_site_fract_z
 _atom_site_occupancy
  Sc  Sc0  1  0.10160831  0.09824734  0.30907417  1
  Sc  Sc1  1  0.44927966  0.10004223  0.32220681  1
  Sc  Sc2  1  0.09829404  0.10319571  0.83487506  1
  Sc  Sc3  1  0.21748272  0.21364156  0.57093783  1
  Sc  Sc4  1  0.45262249  0.09748356  0.82207553  1
  Sc  Sc5  1  0.88132576  0.54688847  0.57164336  1
  Sc  Sc6  1  0.10482976  0.75622795  0.33199258  1
  Sc  Sc7  1  0.45127075  0.75816235  0.32387918  1
  Sc  Sc8  1  0.22317374  0.87010660  0.58584119  1
  Sc  Sc9  1  0.45507451  0.75463215  0.84235978  1
  Al  Al10  1  0.22178837  0.21101681  0.06147467  1
  Al  Al11  1  0.77558700  0.09809103  0.81689925  1
  Al  Al12  1  0.87681629  0.20811094  0.56570592  1
  Al  Al13  1  0.56434340  0.19944107  0.06505775  1
  Al  Al14  1  0.77276417  0.09831934  0.31832252  1
  Al  Al15  1  0.87986772  0.20755171  0.06533124  1
  Al  Al16  1  0.56534219  0.20264565  0.56623522  1
  Al  Al17  1  0.10541283  0.42654286  0.30488690  1
  Al  Al18  1  0.23059328  0.53214363  0.12702149  1
  Al  Al19  1  0.77894617  0.42328503  0.82749676  1
  Al  Al20  1  0.44531526  0.42987815  0.38429366  1
  Al  Al21  1  0.55774959  0.52810676  0.12725725  1
  Al  Al22  1  0.10596631  0.43628980  0.82422951  1
  Al  Al23  1  0.22941568  0.53737092  0.64155678  1
  Al  Al24  1  0.78165044  0.42256877  0.31689801  1
  Al  Al25  1  0.88802961  0.54021192  0.06567801  1
  Al  Al26  1  0.44304763  0.43115786  0.88802577  1
  Al  Al27  1  0.55658127  0.52932836  0.63743490  1
  Al  Al28  1  0.21923010  0.86506626  0.05926909  1
  Al  Al29  1  0.78360953  0.76472722  0.82098960  1
  Al  Al30  1  0.87708090  0.88124050  0.57134643  1
  Al  Al31  1  0.56458602  0.87076428  0.06755417  1
  Al  Al32  1  0.10014719  0.76227776  0.82067568  1
  Al  Al33  1  0.78124954  0.76091732  0.31391905  1
  Al  Al34  1  0.89011159  0.87204931  0.06632356  1
  Al  Al35  1  0.56704947  0.87066821  0.56894407  1
  N  N36  1  0.20958929  0.22122503  0.36589850  1
  N  N37  1  0.11027837  0.09219783  0.09571055  1
  N  N38  1  0.86448259  0.21500039  0.88325741  1
  N  N39  1  0.77612476  0.09642636  0.62941288  1
  N  N40  1  0.56921538  0.21094197  0.38051076  1
  N  N41  1  0.44606648  0.09493221  0.10941525  1
  N  N42  1  0.21612572  0.22613483  0.87715889  1
  N  N43  1  0.08628068  0.10849789  0.62607317  1
  N  N44  1  0.87123643  0.21181921  0.37702901  1
  N  N45  1  0.77904654  0.09146662  0.12892455  1
  N  N46  1  0.56988139  0.20918992  0.87923922  1
  N  N47  1  0.46106021  0.08954205  0.61064963  1
  N  N48  1  0.24054232  0.51125968  0.31797803  1
  N  N49  1  0.10688145  0.42774543  0.11530253  1
  N  N50  1  0.88615039  0.54183206  0.87399282  1
  N  N51  1  0.77326140  0.41650429  0.62207197  1
  N  N52  1  0.56231550  0.51691137  0.31646221  1
  N  N53  1  0.44409899  0.42856446  0.07478062  1
  N  N54  1  0.22872337  0.53849513  0.83464640  1
  N  N55  1  0.11128286  0.43924847  0.63704954  1
  N  N56  1  0.89007704  0.53842920  0.35984016  1
  N  N57  1  0.78400325  0.42419121  0.11739630  1
  N  N58  1  0.56190090  0.51596153  0.82736859  1
  N  N59  1  0.43795238  0.43710774  0.57542840  1
  N  N60  1  0.22204999  0.87164603  0.38116749  1
  N  N61  1  0.10873007  0.76147993  0.11779812  1
  N  N62  1  0.88818184  0.87581521  0.87841876  1
  N  N63  1  0.77085577  0.78130196  0.63696193  1
  N  N64  1  0.57899118  0.86132460  0.38211611  1
  N  N65  1  0.44556165  0.76008741  0.10174343  1
  N  N66  1  0.21280937  0.85964715  0.87127886  1
  N  N67  1  0.09253391  0.75871023  0.62594425  1
  N  N68  1  0.86661189  0.88444362  0.38247011  1
  N  N69  1  0.78214823  0.76069308  0.12595856  1
  N  N70  1  0.58162742  0.86508681  0.88671682  1
  N  N71  1  0.46881658  0.75333210  0.62264277  1
