# generated using pymatgen
data_Sc5Al13N18
_symmetry_space_group_name_H-M   'P 1'
_cell_length_a   9.87675139
_cell_length_b   9.87238097
_cell_length_c   10.14699454
_cell_angle_alpha   89.69250781
_cell_angle_beta   89.68435527
_cell_angle_gamma   60.02209256
_symmetry_Int_Tables_number   1
_chemical_formula_structural   Sc5Al13N18
_chemical_formula_sum   'Sc10 Al26 N36'
_cell_volume   857.02237034
_cell_formula_units_Z   2
loop_
 _symmetry_equiv_pos_site_id
 _symmetry_equiv_pos_as_xyz
  1  'x, y, z'
loop_
 _atom_site_type_symbol
 _atom_site_label
 _atom_site_symmetry_multiplicity
 _atom_site_fract_x
 _atom_site_fract_y
 _atom_site_fract_z
 _atom_site_occupancy
  Sc  Sc0  1  0.09635870  0.10282964  0.36771756  1
  Sc  Sc1  1  0.45140348  0.09720259  0.35814380  1
  Sc  Sc2  1  0.10065325  0.10133198  0.88359614  1
  Sc  Sc3  1  0.22267584  0.21287909  0.62232819  1
  Sc  Sc4  1  0.44716513  0.10473667  0.88030486  1
  Sc  Sc5  1  0.88371977  0.54085171  0.61323931  1
  Sc  Sc6  1  0.10152955  0.75206678  0.37312391  1
  Sc  Sc7  1  0.45537192  0.74621620  0.36748207  1
  Sc  Sc8  1  0.21986266  0.86935894  0.62682784  1
  Sc  Sc9  1  0.45078551  0.75099289  0.87266805  1
  Al  Al10  1  0.21818258  0.21229106  0.13572593  1
  Al  Al11  1  0.77561316  0.09994850  0.88087601  1
  Al  Al12  1  0.87408942  0.20990411  0.63211954  1
  Al  Al13  1  0.56069365  0.21161450  0.13360126  1
  Al  Al14  1  0.77231608  0.09908475  0.38190837  1
  Al  Al15  1  0.87871805  0.20916090  0.13195601  1
  Al  Al16  1  0.56089958  0.20800572  0.62961910  1
  Al  Al17  1  0.11350196  0.43194326  0.37527298  1
  Al  Al18  1  0.22763255  0.53194687  0.12682728  1
  Al  Al19  1  0.77751915  0.42708118  0.88154848  1
  Al  Al20  1  0.44754845  0.42348057  0.38066114  1
  Al  Al21  1  0.55905865  0.52942090  0.13006255  1
  Al  Al22  1  0.10460880  0.43743662  0.88540294  1
  Al  Al23  1  0.22224654  0.54090715  0.63535363  1
  Al  Al24  1  0.77220889  0.42081358  0.37779687  1
  Al  Al25  1  0.89222090  0.53012949  0.12941761  1
  Al  Al26  1  0.44785115  0.42615395  0.87836426  1
  Al  Al27  1  0.55911526  0.52829238  0.63195036  1
  Al  Al28  1  0.22259606  0.86826273  0.13414366  1
  Al  Al29  1  0.78139130  0.76289616  0.82500117  1
  Al  Al30  1  0.88680286  0.88269641  0.63934268  1
  Al  Al31  1  0.56685010  0.86465228  0.07726448  1
  Al  Al32  1  0.10720426  0.75817258  0.88768863  1
  Al  Al33  1  0.78078807  0.75887152  0.31157808  1
  Al  Al34  1  0.88575339  0.87951874  0.12555934  1
  Al  Al35  1  0.57104280  0.87017996  0.56823454  1
  N  N36  1  0.21055920  0.22488955  0.32286036  1
  N  N37  1  0.10767939  0.09606210  0.09817790  1
  N  N38  1  0.86881777  0.21707722  0.82116007  1
  N  N39  1  0.77716953  0.09453610  0.57291482  1
  N  N40  1  0.56684991  0.21779154  0.31976818  1
  N  N41  1  0.44656806  0.09599809  0.10322277  1
  N  N42  1  0.21118956  0.22726534  0.83065384  1
  N  N43  1  0.08704441  0.10806836  0.58087559  1
  N  N44  1  0.86380352  0.21491549  0.31606291  1
  N  N45  1  0.77546255  0.09741234  0.06956830  1
  N  N46  1  0.56621587  0.21625298  0.81784257  1
  N  N47  1  0.46253713  0.09120820  0.58230764  1
  N  N48  1  0.23821938  0.51621704  0.31268815  1
  N  N49  1  0.10999861  0.42916371  0.07535440  1
  N  N50  1  0.88956740  0.53649774  0.83248918  1
  N  N51  1  0.76464206  0.41658068  0.56497227  1
  N  N52  1  0.56543658  0.51412856  0.31556458  1
  N  N53  1  0.44593980  0.42606995  0.06778888  1
  N  N54  1  0.22229715  0.53932637  0.82836283  1
  N  N55  1  0.11906268  0.44404571  0.56093549  1
  N  N56  1  0.89138117  0.53143937  0.32956567  1
  N  N57  1  0.77838528  0.42629554  0.07248824  1
  N  N58  1  0.56746337  0.51721162  0.82048836  1
  N  N59  1  0.44046946  0.43134112  0.57320445  1
  N  N60  1  0.22030129  0.86693277  0.32305232  1
  N  N61  1  0.11034192  0.75802142  0.08117659  1
  N  N62  1  0.89224440  0.87892319  0.83427008  1
  N  N63  1  0.76955364  0.78219674  0.63428670  1
  N  N64  1  0.58418585  0.85597901  0.37823696  1
  N  N65  1  0.44710346  0.75572491  0.09651557  1
  N  N66  1  0.21196558  0.86450211  0.83476680  1
  N  N67  1  0.09728362  0.75437031  0.58215714  1
  N  N68  1  0.86854520  0.89117826  0.31567705  1
  N  N69  1  0.78215366  0.75518099  0.12053189  1
  N  N70  1  0.57920503  0.86384880  0.88888268  1
  N  N71  1  0.46670456  0.74885330  0.59264481  1
