# generated using pymatgen
data_Sc5Al13N18
_symmetry_space_group_name_H-M   'P 1'
_cell_length_a   9.90541429
_cell_length_b   9.89880047
_cell_length_c   10.09867107
_cell_angle_alpha   89.64307416
_cell_angle_beta   89.85601897
_cell_angle_gamma   60.15209416
_symmetry_Int_Tables_number   1
_chemical_formula_structural   Sc5Al13N18
_chemical_formula_sum   'Sc10 Al26 N36'
_cell_volume   858.82585258
_cell_formula_units_Z   2
loop_
 _symmetry_equiv_pos_site_id
 _symmetry_equiv_pos_as_xyz
  1  'x, y, z'
loop_
 _atom_site_type_symbol
 _atom_site_label
 _atom_site_symmetry_multiplicity
 _atom_site_fract_x
 _atom_site_fract_y
 _atom_site_fract_z
 _atom_site_occupancy
  Sc  Sc0  1  0.09661867  0.10414704  0.36904743  1
  Sc  Sc1  1  0.45090936  0.09611742  0.35999019  1
  Sc  Sc2  1  0.10240438  0.09983447  0.88329267  1
  Sc  Sc3  1  0.22347723  0.21180083  0.62351528  1
  Sc  Sc4  1  0.44690775  0.10245293  0.88047181  1
  Sc  Sc5  1  0.88514739  0.54089386  0.61327010  1
  Sc  Sc6  1  0.10509412  0.75104774  0.35841302  1
  Sc  Sc7  1  0.45439071  0.74519034  0.37077371  1
  Sc  Sc8  1  0.21463864  0.86841475  0.62534382  1
  Sc  Sc9  1  0.45221869  0.75137169  0.86805813  1
  Al  Al10  1  0.21775845  0.21301386  0.13560030  1
  Al  Al11  1  0.77891629  0.09358057  0.83754432  1
  Al  Al12  1  0.87619449  0.21206050  0.63447061  1
  Al  Al13  1  0.55625454  0.21317896  0.12998734  1
  Al  Al14  1  0.77194205  0.09929647  0.33158289  1
  Al  Al15  1  0.88076954  0.21143918  0.12837885  1
  Al  Al16  1  0.55887152  0.20897690  0.63218466  1
  Al  Al17  1  0.11428523  0.43161555  0.37708241  1
  Al  Al18  1  0.22995487  0.52930172  0.12788378  1
  Al  Al19  1  0.77806363  0.42956072  0.88383572  1
  Al  Al20  1  0.44804306  0.42314234  0.38226268  1
  Al  Al21  1  0.55895978  0.53087184  0.13053452  1
  Al  Al22  1  0.10418511  0.43770646  0.88521522  1
  Al  Al23  1  0.22181978  0.54160503  0.63313315  1
  Al  Al24  1  0.77175602  0.42268629  0.37925003  1
  Al  Al25  1  0.89225268  0.53323238  0.13337911  1
  Al  Al26  1  0.44771047  0.42680527  0.87994640  1
  Al  Al27  1  0.55974722  0.52712411  0.63370302  1
  Al  Al28  1  0.22495250  0.86953991  0.13338718  1
  Al  Al29  1  0.78479809  0.76487463  0.82133324  1
  Al  Al30  1  0.87627402  0.88263480  0.56634688  1
  Al  Al31  1  0.56731793  0.86407569  0.07833051  1
  Al  Al32  1  0.11383979  0.75232150  0.88911154  1
  Al  Al33  1  0.77971515  0.76225254  0.31691898  1
  Al  Al34  1  0.88256266  0.87563461  0.06886464  1
  Al  Al35  1  0.56943477  0.86964845  0.57132624  1
  N  N36  1  0.21076551  0.22539078  0.32405816  1
  N  N37  1  0.10858879  0.09670715  0.09769176  1
  N  N38  1  0.87111903  0.22014166  0.82723604  1
  N  N39  1  0.77846933  0.09346557  0.61467050  1
  N  N40  1  0.56063676  0.22072931  0.31906989  1
  N  N41  1  0.44485750  0.09564256  0.10280131  1
  N  N42  1  0.21100635  0.22764632  0.83234455  1
  N  N43  1  0.08716399  0.10820156  0.58263671  1
  N  N44  1  0.86608557  0.21925868  0.31584601  1
  N  N45  1  0.77645299  0.09465753  0.09891875  1
  N  N46  1  0.56066868  0.21867710  0.82356419  1
  N  N47  1  0.46310397  0.09002439  0.58455982  1
  N  N48  1  0.24039629  0.51294367  0.31416088  1
  N  N49  1  0.10900236  0.43067893  0.07648928  1
  N  N50  1  0.88968301  0.53818107  0.83201162  1
  N  N51  1  0.76471777  0.41772778  0.56690630  1
  N  N52  1  0.56543398  0.51412420  0.31716421  1
  N  N53  1  0.44555800  0.42763907  0.06895324  1
  N  N54  1  0.22305595  0.53879502  0.82822134  1
  N  N55  1  0.11995300  0.44170821  0.56322168  1
  N  N56  1  0.89138357  0.53360665  0.33303037  1
  N  N57  1  0.77810177  0.43041538  0.07483677  1
  N  N58  1  0.56841729  0.51653707  0.82267455  1
  N  N59  1  0.44120752  0.43046612  0.57483089  1
  N  N60  1  0.22147236  0.87037019  0.32306591  1
  N  N61  1  0.11446297  0.75530832  0.08876927  1
  N  N62  1  0.89070162  0.87138283  0.87822443  1
  N  N63  1  0.77123874  0.78389408  0.63339116  1
  N  N64  1  0.58098398  0.85507200  0.37934687  1
  N  N65  1  0.44788787  0.75603252  0.09551375  1
  N  N66  1  0.21127724  0.86280195  0.83494769  1
  N  N67  1  0.09927095  0.75035947  0.57331947  1
  N  N68  1  0.86080335  0.88915677  0.37311476  1
  N  N69  1  0.78265602  0.76070997  0.12809740  1
  N  N70  1  0.58296658  0.86162345  0.88849217  1
  N  N71  1  0.46458548  0.74931178  0.59784608  1
