# generated using pymatgen
data_Sc5Al13N18
_symmetry_space_group_name_H-M   'P 1'
_cell_length_a   9.95106059
_cell_length_b   9.92033591
_cell_length_c   10.02062561
_cell_angle_alpha   89.63651865
_cell_angle_beta   89.89343738
_cell_angle_gamma   60.05504927
_symmetry_Int_Tables_number   1
_chemical_formula_structural   Sc5Al13N18
_chemical_formula_sum   'Sc10 Al26 N36'
_cell_volume   857.14170158
_cell_formula_units_Z   2
loop_
 _symmetry_equiv_pos_site_id
 _symmetry_equiv_pos_as_xyz
  1  'x, y, z'
loop_
 _atom_site_type_symbol
 _atom_site_label
 _atom_site_symmetry_multiplicity
 _atom_site_fract_x
 _atom_site_fract_y
 _atom_site_fract_z
 _atom_site_occupancy
  Sc  Sc0  1  0.10094657  0.09615657  0.33291166  1
  Sc  Sc1  1  0.45630783  0.09647913  0.33784657  1
  Sc  Sc2  1  0.09989218  0.10569610  0.85449133  1
  Sc  Sc3  1  0.21944448  0.21577725  0.60697961  1
  Sc  Sc4  1  0.45514630  0.09238837  0.83092908  1
  Sc  Sc5  1  0.88213551  0.54128517  0.61320271  1
  Sc  Sc6  1  0.10494235  0.75704802  0.33912423  1
  Sc  Sc7  1  0.45032681  0.75742834  0.33074697  1
  Sc  Sc8  1  0.22470995  0.86766706  0.59942810  1
  Sc  Sc9  1  0.45948811  0.74881576  0.84884955  1
  Al  Al10  1  0.22154818  0.21202567  0.12905307  1
  Al  Al11  1  0.77658388  0.09557754  0.82959280  1
  Al  Al12  1  0.87274584  0.20847530  0.59898563  1
  Al  Al13  1  0.56002277  0.20255641  0.06786945  1
  Al  Al14  1  0.77031479  0.09838927  0.31351188  1
  Al  Al15  1  0.87998682  0.20761837  0.09602238  1
  Al  Al16  1  0.56471388  0.20615231  0.57279368  1
  Al  Al17  1  0.11211641  0.43513839  0.37557409  1
  Al  Al18  1  0.22853425  0.53187534  0.12881781  1
  Al  Al19  1  0.77641025  0.43033317  0.89154998  1
  Al  Al20  1  0.44535951  0.43089448  0.38475861  1
  Al  Al21  1  0.55797190  0.52882681  0.12940792  1
  Al  Al22  1  0.10641902  0.43558507  0.88600516  1
  Al  Al23  1  0.22379464  0.53659155  0.63732329  1
  Al  Al24  1  0.76996853  0.42468562  0.37346190  1
  Al  Al25  1  0.89005923  0.53655161  0.13652603  1
  Al  Al26  1  0.44389973  0.42963393  0.88282910  1
  Al  Al27  1  0.55976242  0.52716321  0.63580167  1
  Al  Al28  1  0.22005971  0.86425723  0.06454605  1
  Al  Al29  1  0.78569193  0.76161985  0.82471017  1
  Al  Al30  1  0.87704518  0.88273294  0.57517503  1
  Al  Al31  1  0.56619506  0.86926671  0.07455435  1
  Al  Al32  1  0.10018070  0.75915917  0.82382524  1
  Al  Al33  1  0.78087818  0.76515961  0.32270400  1
  Al  Al34  1  0.88939896  0.86998122  0.06992874  1
  Al  Al35  1  0.56911593  0.86779985  0.57259926  1
  N  N36  1  0.21253922  0.22439390  0.33141846  1
  N  N37  1  0.11523471  0.09132146  0.10043709  1
  N  N38  1  0.86678449  0.21272165  0.88544334  1
  N  N39  1  0.77408442  0.09650634  0.63606714  1
  N  N40  1  0.57148414  0.21433380  0.38251667  1
  N  N41  1  0.44676265  0.09490643  0.11262996  1
  N  N42  1  0.21483609  0.23070285  0.82538533  1
  N  N43  1  0.08247307  0.11051732  0.61613383  1
  N  N44  1  0.86724927  0.21698366  0.32371562  1
  N  N45  1  0.77301978  0.08747960  0.12249457  1
  N  N46  1  0.56706760  0.21021340  0.87761459  1
  N  N47  1  0.46482070  0.08721008  0.60633772  1
  N  N48  1  0.24061210  0.51352892  0.31833661  1
  N  N49  1  0.10842044  0.43084874  0.07943356  1
  N  N50  1  0.89003605  0.53498154  0.83420822  1
  N  N51  1  0.76113940  0.41847718  0.56496571  1
  N  N52  1  0.56170642  0.51861054  0.31851847  1
  N  N53  1  0.44235963  0.43118783  0.07501848  1
  N  N54  1  0.22430591  0.53447236  0.83170095  1
  N  N55  1  0.11510771  0.44928620  0.56217458  1
  N  N56  1  0.88993543  0.53612815  0.33623892  1
  N  N57  1  0.77419824  0.43779301  0.08324685  1
  N  N58  1  0.57155407  0.50932778  0.82604503  1
  N  N59  1  0.43666337  0.43800518  0.58069556  1
  N  N60  1  0.22442811  0.86629602  0.38957756  1
  N  N61  1  0.10827596  0.76174423  0.11906904  1
  N  N62  1  0.88922226  0.87197319  0.87971796  1
  N  N63  1  0.77130285  0.78316903  0.63508039  1
  N  N64  1  0.57962082  0.85835459  0.38329037  1
  N  N65  1  0.44441264  0.76011424  0.10330340  1
  N  N66  1  0.21437454  0.85806926  0.86809566  1
  N  N67  1  0.09149439  0.75865656  0.62614029  1
  N  N68  1  0.86543186  0.88925193  0.38381155  1
  N  N69  1  0.78183494  0.76306380  0.13110317  1
  N  N70  1  0.58485945  0.85926896  0.88970286  1
  N  N71  1  0.47251457  0.75006396  0.62388559  1
