# generated using pymatgen
data_Sc5Al13N18
_symmetry_space_group_name_H-M   'P 1'
_cell_length_a   9.95406079
_cell_length_b   9.93403641
_cell_length_c   9.99230392
_cell_angle_alpha   89.69643296
_cell_angle_beta   89.86813477
_cell_angle_gamma   60.11769052
_symmetry_Int_Tables_number   1
_chemical_formula_structural   Sc5Al13N18
_chemical_formula_sum   'Sc10 Al26 N36'
_cell_volume   856.70242253
_cell_formula_units_Z   2
loop_
 _symmetry_equiv_pos_site_id
 _symmetry_equiv_pos_as_xyz
  1  'x, y, z'
loop_
 _atom_site_type_symbol
 _atom_site_label
 _atom_site_symmetry_multiplicity
 _atom_site_fract_x
 _atom_site_fract_y
 _atom_site_fract_z
 _atom_site_occupancy
  Sc  Sc0  1  0.09394982  0.10803465  0.37174784  1
  Sc  Sc1  1  0.45219051  0.09621248  0.36090782  1
  Sc  Sc2  1  0.10172643  0.10183586  0.87426765  1
  Sc  Sc3  1  0.22425966  0.21363628  0.62215900  1
  Sc  Sc4  1  0.44792903  0.10068949  0.87719048  1
  Sc  Sc5  1  0.88459310  0.54110073  0.60991009  1
  Sc  Sc6  1  0.10452107  0.75243289  0.35789080  1
  Sc  Sc7  1  0.45542213  0.74885806  0.35089964  1
  Sc  Sc8  1  0.21683121  0.86758106  0.61334962  1
  Sc  Sc9  1  0.45585063  0.75232267  0.85062856  1
  Al  Al10  1  0.21849348  0.21190923  0.13488433  1
  Al  Al11  1  0.77941971  0.09022446  0.82440691  1
  Al  Al12  1  0.87443119  0.21373018  0.63576247  1
  Al  Al13  1  0.55302944  0.21378951  0.12893179  1
  Al  Al14  1  0.77345637  0.09626475  0.31314785  1
  Al  Al15  1  0.88269740  0.21114385  0.12550643  1
  Al  Al16  1  0.55770226  0.20984370  0.63225523  1
  Al  Al17  1  0.11492816  0.43213341  0.37635775  1
  Al  Al18  1  0.22959503  0.52911337  0.12784407  1
  Al  Al19  1  0.77738908  0.42974142  0.88401322  1
  Al  Al20  1  0.44790052  0.42341240  0.38225262  1
  Al  Al21  1  0.55948014  0.52848435  0.12849785  1
  Al  Al22  1  0.10364984  0.43796337  0.88514627  1
  Al  Al23  1  0.22055090  0.54242040  0.63389389  1
  Al  Al24  1  0.77031758  0.42171750  0.37846603  1
  Al  Al25  1  0.89185238  0.53349190  0.13436230  1
  Al  Al26  1  0.44702335  0.42675524  0.87981119  1
  Al  Al27  1  0.55996015  0.52636923  0.63292865  1
  Al  Al28  1  0.22370037  0.87034556  0.11381922  1
  Al  Al29  1  0.78612605  0.76313426  0.82175418  1
  Al  Al30  1  0.87559920  0.88342876  0.56675796  1
  Al  Al31  1  0.56775405  0.86365104  0.07809269  1
  Al  Al32  1  0.11244115  0.75287983  0.88489058  1
  Al  Al33  1  0.78072507  0.76281560  0.31945273  1
  Al  Al34  1  0.88199071  0.87503244  0.06954699  1
  Al  Al35  1  0.56983602  0.86819258  0.57241784  1
  N  N36  1  0.21191910  0.22499360  0.32595103  1
  N  N37  1  0.10977192  0.09523666  0.09515707  1
  N  N38  1  0.86834255  0.22003443  0.83171266  1
  N  N39  1  0.77919806  0.09122865  0.62486115  1
  N  N40  1  0.56068982  0.22064770  0.32067907  1
  N  N41  1  0.44460284  0.09512237  0.10263140  1
  N  N42  1  0.21236332  0.22913098  0.83267932  1
  N  N43  1  0.08553743  0.11160873  0.59077103  1
  N  N44  1  0.86617415  0.21919952  0.31539266  1
  N  N45  1  0.77746804  0.09084165  0.11163280  1
  N  N46  1  0.56057304  0.21825022  0.82670108  1
  N  N47  1  0.46434510  0.08881170  0.58812992  1
  N  N48  1  0.24038100  0.51377786  0.31541675  1
  N  N49  1  0.10837627  0.43056947  0.07830791  1
  N  N50  1  0.88963669  0.53730998  0.83211845  1
  N  N51  1  0.76385569  0.41700785  0.56766168  1
  N  N52  1  0.56496846  0.51342625  0.31776399  1
  N  N53  1  0.44460643  0.42775627  0.06991670  1
  N  N54  1  0.22235412  0.53866774  0.83000344  1
  N  N55  1  0.11951470  0.44282671  0.56408728  1
  N  N56  1  0.89102065  0.53389197  0.33584563  1
  N  N57  1  0.77804026  0.43072905  0.07611681  1
  N  N58  1  0.56851407  0.51485816  0.82491418  1
  N  N59  1  0.44049864  0.43078131  0.57654010  1
  N  N60  1  0.22027177  0.87256987  0.35058598  1
  N  N61  1  0.11359193  0.75591441  0.09102437  1
  N  N62  1  0.89007231  0.87179562  0.87841779  1
  N  N63  1  0.77204300  0.78315635  0.63225556  1
  N  N64  1  0.58180700  0.85560478  0.38012383  1
  N  N65  1  0.44744136  0.75734924  0.10391930  1
  N  N66  1  0.21353036  0.86186406  0.84046946  1
  N  N67  1  0.09657245  0.75100288  0.57825227  1
  N  N68  1  0.86072769  0.89094595  0.37321927  1
  N  N69  1  0.78298176  0.75988848  0.12844372  1
  N  N70  1  0.58490240  0.86020364  0.88865013  1
  N  N71  1  0.46830523  0.74914381  0.60929710  1
