# generated using pymatgen
data_Sc5Al13N18
_symmetry_space_group_name_H-M   'P 1'
_cell_length_a   9.91587134
_cell_length_b   9.90810860
_cell_length_c   10.08007039
_cell_angle_alpha   89.47290275
_cell_angle_beta   89.52181898
_cell_angle_gamma   60.16100325
_symmetry_Int_Tables_number   1
_chemical_formula_structural   Sc5Al13N18
_chemical_formula_sum   'Sc10 Al26 N36'
_cell_volume   859.00494922
_cell_formula_units_Z   2
loop_
 _symmetry_equiv_pos_site_id
 _symmetry_equiv_pos_as_xyz
  1  'x, y, z'
loop_
 _atom_site_type_symbol
 _atom_site_label
 _atom_site_symmetry_multiplicity
 _atom_site_fract_x
 _atom_site_fract_y
 _atom_site_fract_z
 _atom_site_occupancy
  Sc  Sc0  1  0.09331203  0.10575289  0.36967701  1
  Sc  Sc1  1  0.45447272  0.09645323  0.33450852  1
  Sc  Sc2  1  0.10396336  0.10033353  0.87914068  1
  Sc  Sc3  1  0.21963828  0.21528810  0.61482452  1
  Sc  Sc4  1  0.45568138  0.09298436  0.83377361  1
  Sc  Sc5  1  0.88233419  0.54184304  0.61301668  1
  Sc  Sc6  1  0.10452349  0.75135872  0.36100862  1
  Sc  Sc7  1  0.45714877  0.74948303  0.35354712  1
  Sc  Sc8  1  0.21731832  0.86755723  0.62073424  1
  Sc  Sc9  1  0.45480964  0.75072792  0.85776308  1
  Al  Al10  1  0.21799718  0.21266869  0.13349401  1
  Al  Al11  1  0.77838024  0.09063468  0.82246832  1
  Al  Al12  1  0.87495189  0.21335449  0.63671258  1
  Al  Al13  1  0.56096180  0.20374036  0.06648643  1
  Al  Al14  1  0.76808370  0.09933027  0.31399715  1
  Al  Al15  1  0.88171051  0.21230707  0.12874104  1
  Al  Al16  1  0.56620887  0.20460946  0.57124020  1
  Al  Al17  1  0.11233372  0.43331537  0.37668107  1
  Al  Al18  1  0.22979730  0.52904957  0.12915659  1
  Al  Al19  1  0.77831759  0.42795639  0.88479800  1
  Al  Al20  1  0.44433548  0.42940519  0.38478949  1
  Al  Al21  1  0.55824904  0.52930696  0.12990186  1
  Al  Al22  1  0.10532156  0.43551019  0.88535343  1
  Al  Al23  1  0.21941282  0.54361488  0.63611113  1
  Al  Al24  1  0.76984461  0.42169703  0.37995255  1
  Al  Al25  1  0.89025262  0.53437092  0.13445106  1
  Al  Al26  1  0.44517631  0.42949197  0.88118845  1
  Al  Al27  1  0.55837424  0.52759540  0.63478239  1
  Al  Al28  1  0.22348671  0.87046625  0.13135789  1
  Al  Al29  1  0.78796621  0.76225080  0.82304878  1
  Al  Al30  1  0.87599790  0.88327314  0.56776862  1
  Al  Al31  1  0.56527203  0.86828875  0.07384860  1
  Al  Al32  1  0.11324498  0.75382339  0.88929784  1
  Al  Al33  1  0.77953325  0.76437851  0.31949220  1
  Al  Al34  1  0.88245763  0.87463902  0.07172939  1
  Al  Al35  1  0.56908321  0.87012023  0.57279690  1
  N  N36  1  0.21114377  0.22516091  0.32728825  1
  N  N37  1  0.10887532  0.09640136  0.09643517  1
  N  N38  1  0.87127246  0.21861085  0.82992530  1
  N  N39  1  0.77567455  0.09209710  0.63055869  1
  N  N40  1  0.56918289  0.21408158  0.38169578  1
  N  N41  1  0.44636666  0.09484986  0.11057791  1
  N  N42  1  0.21245876  0.22839885  0.82714819  1
  N  N43  1  0.08451489  0.10895147  0.58410672  1
  N  N44  1  0.86497186  0.22023341  0.31568195  1
  N  N45  1  0.77421810  0.09107099  0.12094129  1
  N  N46  1  0.57068482  0.20993909  0.87761490  1
  N  N47  1  0.46460639  0.08733124  0.60996473  1
  N  N48  1  0.24009014  0.51273921  0.31513932  1
  N  N49  1  0.10824414  0.43019120  0.07771921  1
  N  N50  1  0.89036531  0.53660266  0.83278407  1
  N  N51  1  0.76281137  0.41647219  0.56754044  1
  N  N52  1  0.56435295  0.51419745  0.31736185  1
  N  N53  1  0.44283792  0.43123950  0.07291831  1
  N  N54  1  0.22184215  0.53924329  0.83072702  1
  N  N55  1  0.11646260  0.44648495  0.56280411  1
  N  N56  1  0.88894822  0.53501249  0.33452382  1
  N  N57  1  0.77739232  0.43023307  0.07553082  1
  N  N58  1  0.56929358  0.51370962  0.82423783  1
  N  N59  1  0.43612595  0.43707506  0.58030756  1
  N  N60  1  0.22101299  0.87110697  0.33005870  1
  N  N61  1  0.11347718  0.75627530  0.09096553  1
  N  N62  1  0.89003390  0.87285364  0.88138829  1
  N  N63  1  0.77209892  0.78345183  0.63440005  1
  N  N64  1  0.57995714  0.86125971  0.38388605  1
  N  N65  1  0.44814110  0.75804149  0.10255774  1
  N  N66  1  0.21293728  0.86218167  0.83485369  1
  N  N67  1  0.09732858  0.75246844  0.57703890  1
  N  N68  1  0.86106458  0.89124664  0.37508763  1
  N  N69  1  0.78053029  0.76163867  0.12966961  1
  N  N70  1  0.58500452  0.85919777  0.88799154  1
  N  N71  1  0.46800866  0.74972716  0.60707289  1
