# generated using pymatgen
data_Sc5Al13N18
_symmetry_space_group_name_H-M   'P 1'
_cell_length_a   9.83846904
_cell_length_b   9.82304097
_cell_length_c   10.14465533
_cell_angle_alpha   90.08742342
_cell_angle_beta   90.06108963
_cell_angle_gamma   60.04768640
_symmetry_Int_Tables_number   1
_chemical_formula_structural   Sc5Al13N18
_chemical_formula_sum   'Sc10 Al26 N36'
_cell_volume   849.47257172
_cell_formula_units_Z   2
loop_
 _symmetry_equiv_pos_site_id
 _symmetry_equiv_pos_as_xyz
  1  'x, y, z'
loop_
 _atom_site_type_symbol
 _atom_site_label
 _atom_site_symmetry_multiplicity
 _atom_site_fract_x
 _atom_site_fract_y
 _atom_site_fract_z
 _atom_site_occupancy
  Sc  Sc0  1  0.10061021  0.09989404  0.29553252  1
  Sc  Sc1  1  0.45035829  0.09580091  0.30849564  1
  Sc  Sc2  1  0.09855712  0.10347849  0.82317256  1
  Sc  Sc3  1  0.21894736  0.21227853  0.55879710  1
  Sc  Sc4  1  0.45390163  0.09560358  0.81027765  1
  Sc  Sc5  1  0.88292220  0.54267125  0.56189415  1
  Sc  Sc6  1  0.10595008  0.75588887  0.31017954  1
  Sc  Sc7  1  0.45257458  0.75217591  0.30470403  1
  Sc  Sc8  1  0.22183876  0.86960477  0.57154298  1
  Sc  Sc9  1  0.45884899  0.74962808  0.81532137  1
  Al  Al10  1  0.22232531  0.21330817  0.04909835  1
  Al  Al11  1  0.77557467  0.09733662  0.80382357  1
  Al  Al12  1  0.87533366  0.20837955  0.55426078  1
  Al  Al13  1  0.55888931  0.20944142  0.05263267  1
  Al  Al14  1  0.77272294  0.09913476  0.30539745  1
  Al  Al15  1  0.87713925  0.21033161  0.05197890  1
  Al  Al16  1  0.56156187  0.20840781  0.55288855  1
  Al  Al17  1  0.10899863  0.43150107  0.29659770  1
  Al  Al18  1  0.22411836  0.53893701  0.05054007  1
  Al  Al19  1  0.77279431  0.42334188  0.80592347  1
  Al  Al20  1  0.44871607  0.42280778  0.30538059  1
  Al  Al21  1  0.55870862  0.53037130  0.05297477  1
  Al  Al22  1  0.10923019  0.43829692  0.80907121  1
  Al  Al23  1  0.22550967  0.53428067  0.55631101  1
  Al  Al24  1  0.77681034  0.42616318  0.30239025  1
  Al  Al25  1  0.88802810  0.53988989  0.05283051  1
  Al  Al26  1  0.44589363  0.42703802  0.80454435  1
  Al  Al27  1  0.55936225  0.52887774  0.55338503  1
  Al  Al28  1  0.22101836  0.86543492  0.04107884  1
  Al  Al29  1  0.78508770  0.76198884  0.80670744  1
  Al  Al30  1  0.87875069  0.87927533  0.55665233  1
  Al  Al31  1  0.56418316  0.87008620  0.05239356  1
  Al  Al32  1  0.10443942  0.75422627  0.80227774  1
  Al  Al33  1  0.78273746  0.75913294  0.30006603  1
  Al  Al34  1  0.88839935  0.87413919  0.05080101  1
  Al  Al35  1  0.56828293  0.86836208  0.55180264  1
  N  N36  1  0.21024022  0.22276005  0.35047239  1
  N  N37  1  0.10931765  0.09430029  0.07904311  1
  N  N38  1  0.86334757  0.21644004  0.86835008  1
  N  N39  1  0.77541820  0.09536787  0.61441571  1
  N  N40  1  0.56518511  0.21538067  0.36531353  1
  N  N41  1  0.44655187  0.09567741  0.09291268  1
  N  N42  1  0.21630361  0.22793583  0.86204443  1
  N  N43  1  0.08538968  0.10961709  0.61155974  1
  N  N44  1  0.86937642  0.21508319  0.36404990  1
  N  N45  1  0.77748281  0.09363107  0.11391324  1
  N  N46  1  0.56564884  0.21654793  0.86595134  1
  N  N47  1  0.46277237  0.08715002  0.59512128  1
  N  N48  1  0.23442802  0.51646988  0.36604033  1
  N  N49  1  0.10993803  0.43282471  0.10610910  1
  N  N50  1  0.88678384  0.53901237  0.85846683  1
  N  N51  1  0.76661885  0.41737358  0.61833149  1
  N  N52  1  0.56579884  0.51820976  0.36419081  1
  N  N53  1  0.44321219  0.42819402  0.11382442  1
  N  N54  1  0.22502751  0.53917829  0.86234912  1
  N  N55  1  0.11543180  0.44129688  0.62394560  1
  N  N56  1  0.89029431  0.53880075  0.34854192  1
  N  N57  1  0.77773618  0.42828772  0.11177578  1
  N  N58  1  0.56480905  0.51655425  0.86797731  1
  N  N59  1  0.44299209  0.42872429  0.61398984  1
  N  N60  1  0.22155455  0.87255161  0.36399335  1
  N  N61  1  0.11023470  0.76068596  0.09889605  1
  N  N62  1  0.88884829  0.87522370  0.86160260  1
  N  N63  1  0.77224425  0.77854805  0.62037681  1
  N  N64  1  0.57831076  0.85871517  0.36395586  1
  N  N65  1  0.44542358  0.75947822  0.08735624  1
  N  N66  1  0.21564526  0.85759080  0.84976046  1
  N  N67  1  0.09672819  0.75102236  0.60960628  1
  N  N68  1  0.86766771  0.88519762  0.36627126  1
  N  N69  1  0.78254604  0.76061350  0.11020211  1
  N  N70  1  0.58098006  0.86265223  0.86976400  1
  N  N71  1  0.47115948  0.74727941  0.60132193  1
