# generated using pymatgen
data_Sc5Al13N18
_symmetry_space_group_name_H-M   'P 1'
_cell_length_a   9.87419718
_cell_length_b   9.84182789
_cell_length_c   10.26504974
_cell_angle_alpha   89.27729865
_cell_angle_beta   89.96806018
_cell_angle_gamma   60.02110403
_symmetry_Int_Tables_number   1
_chemical_formula_structural   Sc5Al13N18
_chemical_formula_sum   'Sc10 Al26 N36'
_cell_volume   864.00740596
_cell_formula_units_Z   2
loop_
 _symmetry_equiv_pos_site_id
 _symmetry_equiv_pos_as_xyz
  1  'x, y, z'
loop_
 _atom_site_type_symbol
 _atom_site_label
 _atom_site_symmetry_multiplicity
 _atom_site_fract_x
 _atom_site_fract_y
 _atom_site_fract_z
 _atom_site_occupancy
  Sc  Sc0  1  0.10266174  0.09776533  0.30862628  1
  Sc  Sc1  1  0.44938796  0.10007481  0.32233979  1
  Sc  Sc2  1  0.09821624  0.10346262  0.83407025  1
  Sc  Sc3  1  0.21735731  0.21375752  0.57087247  1
  Sc  Sc4  1  0.45256894  0.09749143  0.82196692  1
  Sc  Sc5  1  0.88138652  0.54705548  0.57314041  1
  Sc  Sc6  1  0.10482053  0.75626788  0.33195940  1
  Sc  Sc7  1  0.45129074  0.75818289  0.32338376  1
  Sc  Sc8  1  0.22329091  0.86991469  0.58569206  1
  Sc  Sc9  1  0.45486727  0.75482701  0.84120954  1
  Al  Al10  1  0.22176129  0.21107247  0.06142552  1
  Al  Al11  1  0.77551475  0.09785715  0.81637530  1
  Al  Al12  1  0.87722131  0.20636344  0.56461699  1
  Al  Al13  1  0.56408757  0.19961203  0.06485323  1
  Al  Al14  1  0.77273611  0.09743686  0.31764741  1
  Al  Al15  1  0.88088670  0.20506800  0.06619726  1
  Al  Al16  1  0.56517635  0.20306609  0.56625845  1
  Al  Al17  1  0.10564113  0.42649263  0.30485891  1
  Al  Al18  1  0.23089594  0.53223482  0.12690067  1
  Al  Al19  1  0.77573302  0.42714960  0.85821259  1
  Al  Al20  1  0.44519607  0.42984256  0.38449286  1
  Al  Al21  1  0.55915723  0.52735971  0.12762499  1
  Al  Al22  1  0.10657488  0.43616784  0.82398839  1
  Al  Al23  1  0.22959212  0.53737944  0.64138913  1
  Al  Al24  1  0.77868612  0.42396723  0.33811646  1
  Al  Al25  1  0.88871843  0.54178177  0.06712202  1
  Al  Al26  1  0.44329645  0.43106648  0.88754985  1
  Al  Al27  1  0.55958166  0.52781609  0.63666489  1
  Al  Al28  1  0.21948071  0.86488390  0.05911095  1
  Al  Al29  1  0.78340289  0.76545759  0.82077009  1
  Al  Al30  1  0.87694892  0.88115850  0.57128442  1
  Al  Al31  1  0.56429189  0.87076953  0.06756788  1
  Al  Al32  1  0.10016333  0.76237084  0.82055293  1
  Al  Al33  1  0.78115198  0.76103168  0.31401767  1
  Al  Al34  1  0.89006695  0.87205001  0.06614424  1
  Al  Al35  1  0.56681370  0.87068861  0.56904070  1
  N  N36  1  0.20971438  0.22142416  0.36589320  1
  N  N37  1  0.11044486  0.09205752  0.09569417  1
  N  N38  1  0.86541702  0.21264882  0.88282676  1
  N  N39  1  0.77607238  0.09610153  0.62927406  1
  N  N40  1  0.56931581  0.21102555  0.38038503  1
  N  N41  1  0.44598382  0.09497440  0.10937968  1
  N  N42  1  0.21598719  0.22625333  0.87722525  1
  N  N43  1  0.08609794  0.10844687  0.62572093  1
  N  N44  1  0.87318711  0.20784069  0.37456787  1
  N  N45  1  0.77864096  0.09094809  0.12858308  1
  N  N46  1  0.56979752  0.20926213  0.87898209  1
  N  N47  1  0.46098401  0.08963926  0.61057252  1
  N  N48  1  0.24066507  0.51139593  0.31779673  1
  N  N49  1  0.10716094  0.42771181  0.11544082  1
  N  N50  1  0.88727717  0.54337494  0.87412250  1
  N  N51  1  0.76876726  0.41918562  0.59749189  1
  N  N52  1  0.56290013  0.51630596  0.31519328  1
  N  N53  1  0.44430483  0.42882751  0.07435808  1
  N  N54  1  0.22903674  0.53868990  0.83462768  1
  N  N55  1  0.11212357  0.43874202  0.63730343  1
  N  N56  1  0.89054087  0.53884957  0.35916605  1
  N  N57  1  0.78067787  0.42649720  0.10106572  1
  N  N58  1  0.56414174  0.51464579  0.82568059  1
  N  N59  1  0.43765471  0.43741063  0.57553886  1
  N  N60  1  0.22243827  0.87119974  0.38100889  1
  N  N61  1  0.10865401  0.76156224  0.11768125  1
  N  N62  1  0.88812670  0.87587129  0.87834112  1
  N  N63  1  0.77032087  0.78202205  0.63709982  1
  N  N64  1  0.57875566  0.86122017  0.38207093  1
  N  N65  1  0.44536595  0.76018138  0.10193480  1
  N  N66  1  0.21283904  0.85976292  0.87111212  1
  N  N67  1  0.09241754  0.75873960  0.62589321  1
  N  N68  1  0.86653142  0.88410660  0.38240287  1
  N  N69  1  0.78195068  0.76123571  0.12611224  1
  N  N70  1  0.58137698  0.86485865  0.88670843  1
  N  N71  1  0.46844218  0.75362829  0.62322668  1
