# generated using pymatgen
data_Sc5Al13N18
_symmetry_space_group_name_H-M   'P 1'
_cell_length_a   9.87323188
_cell_length_b   9.84374751
_cell_length_c   10.26836077
_cell_angle_alpha   89.26240920
_cell_angle_beta   89.94815432
_cell_angle_gamma   60.01205064
_symmetry_Int_Tables_number   1
_chemical_formula_structural   Sc5Al13N18
_chemical_formula_sum   'Sc10 Al26 N36'
_cell_volume   864.28990018
_cell_formula_units_Z   2
loop_
 _symmetry_equiv_pos_site_id
 _symmetry_equiv_pos_as_xyz
  1  'x, y, z'
loop_
 _atom_site_type_symbol
 _atom_site_label
 _atom_site_symmetry_multiplicity
 _atom_site_fract_x
 _atom_site_fract_y
 _atom_site_fract_z
 _atom_site_occupancy
  Sc  Sc0  1  0.10278187  0.09781519  0.30844134  1
  Sc  Sc1  1  0.44941420  0.10007522  0.32230152  1
  Sc  Sc2  1  0.09815631  0.10357844  0.83398223  1
  Sc  Sc3  1  0.21740424  0.21375888  0.57079064  1
  Sc  Sc4  1  0.45257084  0.09746946  0.82195198  1
  Sc  Sc5  1  0.88182079  0.54753397  0.57393728  1
  Sc  Sc6  1  0.10481293  0.75631631  0.33191212  1
  Sc  Sc7  1  0.45130089  0.75819221  0.32305514  1
  Sc  Sc8  1  0.22336257  0.86989076  0.58563576  1
  Sc  Sc9  1  0.45508036  0.75453850  0.84090014  1
  Al  Al10  1  0.22175371  0.21111426  0.06135704  1
  Al  Al11  1  0.77557497  0.09778385  0.81633693  1
  Al  Al12  1  0.87767185  0.20515751  0.56442702  1
  Al  Al13  1  0.56398677  0.19969519  0.06474788  1
  Al  Al14  1  0.77275974  0.09726206  0.31743224  1
  Al  Al15  1  0.88122860  0.20411544  0.06609561  1
  Al  Al16  1  0.56505077  0.20317594  0.56618130  1
  Al  Al17  1  0.10549890  0.42652855  0.30486491  1
  Al  Al18  1  0.23099489  0.53225305  0.12688114  1
  Al  Al19  1  0.77423321  0.42817513  0.87030885  1
  Al  Al20  1  0.44518183  0.42983420  0.38437271  1
  Al  Al21  1  0.56001653  0.52690510  0.12787003  1
  Al  Al22  1  0.10662798  0.43622702  0.82398262  1
  Al  Al23  1  0.22973737  0.53739102  0.64140476  1
  Al  Al24  1  0.77646585  0.42487571  0.35244325  1
  Al  Al25  1  0.88894493  0.54238130  0.06714341  1
  Al  Al26  1  0.44359262  0.43106342  0.88729167  1
  Al  Al27  1  0.56036957  0.52739645  0.63640213  1
  Al  Al28  1  0.21958024  0.86480184  0.05902923  1
  Al  Al29  1  0.78348302  0.76545810  0.82076798  1
  Al  Al30  1  0.87692994  0.88121556  0.57120196  1
  Al  Al31  1  0.56421304  0.87076785  0.06752447  1
  Al  Al32  1  0.10018892  0.76238566  0.82056229  1
  Al  Al33  1  0.78117289  0.76092167  0.31405309  1
  Al  Al34  1  0.89006016  0.87204208  0.06605689  1
  Al  Al35  1  0.56673001  0.87073615  0.56897812  1
  N  N36  1  0.20975836  0.22148820  0.36594025  1
  N  N37  1  0.11042068  0.09210040  0.09566237  1
  N  N38  1  0.86577977  0.21183201  0.88217886  1
  N  N39  1  0.77593078  0.09616190  0.62929676  1
  N  N40  1  0.56933071  0.21103844  0.38035797  1
  N  N41  1  0.44595750  0.09499190  0.10938909  1
  N  N42  1  0.21599185  0.22633871  0.87726516  1
  N  N43  1  0.08594830  0.10861908  0.62571196  1
  N  N44  1  0.87388750  0.20642671  0.37390794  1
  N  N45  1  0.77851850  0.09085187  0.12849858  1
  N  N46  1  0.56976003  0.20924292  0.87895190  1
  N  N47  1  0.46098408  0.08964166  0.61057043  1
  N  N48  1  0.24068638  0.51142311  0.31769260  1
  N  N49  1  0.10713441  0.42771555  0.11551545  1
  N  N50  1  0.88769680  0.54381375  0.87349818  1
  N  N51  1  0.76678135  0.42039451  0.58654311  1
  N  N52  1  0.56365188  0.51587287  0.31460909  1
  N  N53  1  0.44441693  0.42898383  0.07418714  1
  N  N54  1  0.22922743  0.53869997  0.83453126  1
  N  N55  1  0.11243770  0.43859396  0.63731268  1
  N  N56  1  0.89064047  0.53899488  0.35926177  1
  N  N57  1  0.77887440  0.42775871  0.09141534  1
  N  N58  1  0.56551709  0.51379391  0.82450490  1
  N  N59  1  0.43764300  0.43748965  0.57542459  1
  N  N60  1  0.22253804  0.87113164  0.38101042  1
  N  N61  1  0.10862939  0.76159585  0.11766386  1
  N  N62  1  0.88810611  0.87585805  0.87832577  1
  N  N63  1  0.77018376  0.78231559  0.63709726  1
  N  N64  1  0.57865574  0.86118220  0.38206433  1
  N  N65  1  0.44533798  0.76017537  0.10200609  1
  N  N66  1  0.21296864  0.85969054  0.87107669  1
  N  N67  1  0.09239381  0.75878261  0.62587989  1
  N  N68  1  0.86647643  0.88403471  0.38239927  1
  N  N69  1  0.78191210  0.76134710  0.12616864  1
  N  N70  1  0.58131919  0.86477244  0.88670892  1
  N  N71  1  0.46848844  0.75360475  0.62327314  1
