# generated using pymatgen
data_Sc5Al13N18
_symmetry_space_group_name_H-M   'P 1'
_cell_length_a   9.90247376
_cell_length_b   9.89769399
_cell_length_c   10.09211328
_cell_angle_alpha   89.64551441
_cell_angle_beta   89.85177814
_cell_angle_gamma   60.15819505
_symmetry_Int_Tables_number   1
_chemical_formula_structural   Sc5Al13N18
_chemical_formula_sum   'Sc10 Al26 N36'
_cell_volume   857.97016102
_cell_formula_units_Z   2
loop_
 _symmetry_equiv_pos_site_id
 _symmetry_equiv_pos_as_xyz
  1  'x, y, z'
loop_
 _atom_site_type_symbol
 _atom_site_label
 _atom_site_symmetry_multiplicity
 _atom_site_fract_x
 _atom_site_fract_y
 _atom_site_fract_z
 _atom_site_occupancy
  Sc  Sc0  1  0.09639771  0.10418256  0.36871931  1
  Sc  Sc1  1  0.45098762  0.09601111  0.35938830  1
  Sc  Sc2  1  0.10228419  0.09986264  0.88292101  1
  Sc  Sc3  1  0.22341139  0.21178518  0.62328035  1
  Sc  Sc4  1  0.44711095  0.10250444  0.88008574  1
  Sc  Sc5  1  0.88506763  0.54079040  0.61313829  1
  Sc  Sc6  1  0.10518731  0.75100901  0.35797175  1
  Sc  Sc7  1  0.45449894  0.74509532  0.37076081  1
  Sc  Sc8  1  0.21472655  0.86849169  0.62523394  1
  Sc  Sc9  1  0.45233173  0.75132410  0.86793536  1
  Al  Al10  1  0.21775109  0.21299346  0.13542452  1
  Al  Al11  1  0.77672364  0.09767415  0.86357621  1
  Al  Al12  1  0.87509478  0.21130413  0.63441847  1
  Al  Al13  1  0.55857308  0.21222620  0.13052147  1
  Al  Al14  1  0.76971995  0.10364346  0.36051952  1
  Al  Al15  1  0.87952837  0.21061648  0.12882647  1
  Al  Al16  1  0.56019165  0.20835551  0.63195107  1
  Al  Al17  1  0.11425180  0.43159355  0.37700301  1
  Al  Al18  1  0.23023496  0.52895253  0.12772369  1
  Al  Al19  1  0.77814860  0.42938970  0.88344353  1
  Al  Al20  1  0.44805626  0.42300196  0.38194969  1
  Al  Al21  1  0.55900574  0.53074466  0.13030417  1
  Al  Al22  1  0.10417941  0.43770332  0.88514556  1
  Al  Al23  1  0.22200818  0.54145358  0.63298992  1
  Al  Al24  1  0.77191515  0.42256505  0.37887101  1
  Al  Al25  1  0.89225524  0.53296719  0.13317174  1
  Al  Al26  1  0.44786910  0.42655563  0.87953754  1
  Al  Al27  1  0.55980751  0.52703514  0.63347644  1
  Al  Al28  1  0.22501362  0.86962290  0.13333413  1
  Al  Al29  1  0.78488373  0.76502705  0.82124268  1
  Al  Al30  1  0.87714076  0.88102972  0.56644436  1
  Al  Al31  1  0.56717076  0.86417157  0.07828535  1
  Al  Al32  1  0.11390522  0.75219509  0.88877331  1
  Al  Al33  1  0.77974088  0.76217674  0.31661967  1
  Al  Al34  1  0.88333939  0.87432044  0.06948279  1
  Al  Al35  1  0.56923662  0.86983292  0.57128908  1
  N  N36  1  0.21072708  0.22532915  0.32403528  1
  N  N37  1  0.10822088  0.09676798  0.09765471  1
  N  N38  1  0.87044810  0.21921823  0.82557179  1
  N  N39  1  0.77589846  0.09795440  0.59283828  1
  N  N40  1  0.56246061  0.21970199  0.31819967  1
  N  N41  1  0.44516148  0.09567356  0.10285682  1
  N  N42  1  0.21109098  0.22756128  0.83237632  1
  N  N43  1  0.08693653  0.10821021  0.58270560  1
  N  N44  1  0.86506610  0.21810535  0.31500066  1
  N  N45  1  0.77484803  0.09798473  0.08014191  1
  N  N46  1  0.56262521  0.21759549  0.82189318  1
  N  N47  1  0.46300789  0.09010049  0.58456439  1
  N  N48  1  0.24059280  0.51263215  0.31404918  1
  N  N49  1  0.10900404  0.43066704  0.07642927  1
  N  N50  1  0.88966411  0.53803218  0.83192320  1
  N  N51  1  0.76484607  0.41778534  0.56674458  1
  N  N52  1  0.56546127  0.51403577  0.31702749  1
  N  N53  1  0.44579352  0.42716470  0.06875661  1
  N  N54  1  0.22335668  0.53848175  0.82817110  1
  N  N55  1  0.11987482  0.44178420  0.56317531  1
  N  N56  1  0.89135946  0.53334858  0.33282392  1
  N  N57  1  0.77829281  0.42997282  0.07463477  1
  N  N58  1  0.56847312  0.51643827  0.82261391  1
  N  N59  1  0.44109567  0.43050638  0.57465534  1
  N  N60  1  0.22166249  0.87045024  0.32314288  1
  N  N61  1  0.11456062  0.75525431  0.08890456  1
  N  N62  1  0.89151935  0.87027597  0.87729166  1
  N  N63  1  0.77106993  0.78403281  0.63336855  1
  N  N64  1  0.58095712  0.85513004  0.37924328  1
  N  N65  1  0.44792612  0.75597219  0.09547444  1
  N  N66  1  0.21143407  0.86280847  0.83505300  1
  N  N67  1  0.09935513  0.75034612  0.57344457  1
  N  N68  1  0.86175463  0.88765626  0.37119039  1
  N  N69  1  0.78249373  0.76053663  0.12778744  1
  N  N70  1  0.58288436  0.86182435  0.88838546  1
  N  N71  1  0.46464993  0.74929241  0.59790841  1
