# generated using pymatgen
data_Sc5Al13N18
_symmetry_space_group_name_H-M   'P 1'
_cell_length_a   9.88343592
_cell_length_b   9.88302793
_cell_length_c   10.16444786
_cell_angle_alpha   89.46264047
_cell_angle_beta   89.52908400
_cell_angle_gamma   60.19011678
_symmetry_Int_Tables_number   1
_chemical_formula_structural   Sc5Al13N18
_chemical_formula_sum   'Sc10 Al26 N36'
_cell_volume   861.42696358
_cell_formula_units_Z   2
loop_
 _symmetry_equiv_pos_site_id
 _symmetry_equiv_pos_as_xyz
  1  'x, y, z'
loop_
 _atom_site_type_symbol
 _atom_site_label
 _atom_site_symmetry_multiplicity
 _atom_site_fract_x
 _atom_site_fract_y
 _atom_site_fract_z
 _atom_site_occupancy
  Sc  Sc0  1  0.09467221  0.10369994  0.36899606  1
  Sc  Sc1  1  0.45415007  0.09653302  0.33171553  1
  Sc  Sc2  1  0.10375987  0.10012534  0.88321926  1
  Sc  Sc3  1  0.21881386  0.21470685  0.61606440  1
  Sc  Sc4  1  0.45570335  0.09290868  0.83305135  1
  Sc  Sc5  1  0.88265127  0.54168878  0.61480525  1
  Sc  Sc6  1  0.10538138  0.75111204  0.36173344  1
  Sc  Sc7  1  0.45573088  0.74773565  0.36888844  1
  Sc  Sc8  1  0.21639966  0.86797984  0.62626091  1
  Sc  Sc9  1  0.45279229  0.74954180  0.87032655  1
  Al  Al10  1  0.21723646  0.21346066  0.13374418  1
  Al  Al11  1  0.77880771  0.09069762  0.82121012  1
  Al  Al12  1  0.87606117  0.21296854  0.63619068  1
  Al  Al13  1  0.56137058  0.20397093  0.06554790  1
  Al  Al14  1  0.76817310  0.09909267  0.31362511  1
  Al  Al15  1  0.88146657  0.21317012  0.13033225  1
  Al  Al16  1  0.56618840  0.20425549  0.57045858  1
  Al  Al17  1  0.11207038  0.43305127  0.37698233  1
  Al  Al18  1  0.22983944  0.52942178  0.12948923  1
  Al  Al19  1  0.77836095  0.42796474  0.88467290  1
  Al  Al20  1  0.44467313  0.42885743  0.38491523  1
  Al  Al21  1  0.55761039  0.53116236  0.13204225  1
  Al  Al22  1  0.10557898  0.43541301  0.88556536  1
  Al  Al23  1  0.21991788  0.54323798  0.63575949  1
  Al  Al24  1  0.77052350  0.42188397  0.38042747  1
  Al  Al25  1  0.89031180  0.53447318  0.13448913  1
  Al  Al26  1  0.44564230  0.42971375  0.88150863  1
  Al  Al27  1  0.55794470  0.52825855  0.63499068  1
  Al  Al28  1  0.22487273  0.86953141  0.13426196  1
  Al  Al29  1  0.78734117  0.76287992  0.82264040  1
  Al  Al30  1  0.87618208  0.88322528  0.56672799  1
  Al  Al31  1  0.56534153  0.86874764  0.07374455  1
  Al  Al32  1  0.11347432  0.75332439  0.89107840  1
  Al  Al33  1  0.77910231  0.76446954  0.31832952  1
  Al  Al34  1  0.88261406  0.87497334  0.07108608  1
  Al  Al35  1  0.56905242  0.87135633  0.57180695  1
  N  N36  1  0.21049856  0.22541015  0.32559772  1
  N  N37  1  0.10845749  0.09695183  0.09701982  1
  N  N38  1  0.87238308  0.21876040  0.82791530  1
  N  N39  1  0.77588760  0.09176866  0.63079177  1
  N  N40  1  0.56947902  0.21323247  0.38257614  1
  N  N41  1  0.44625717  0.09526381  0.11038739  1
  N  N42  1  0.21153772  0.22793566  0.82681979  1
  N  N43  1  0.08513145  0.10727306  0.58070180  1
  N  N44  1  0.86527103  0.22048989  0.31556673  1
  N  N45  1  0.77424254  0.09120996  0.12193382  1
  N  N46  1  0.57138111  0.20985149  0.87833155  1
  N  N47  1  0.46415132  0.08752207  0.61154820  1
  N  N48  1  0.24022159  0.51244286  0.31432429  1
  N  N49  1  0.10833455  0.43054210  0.07661082  1
  N  N50  1  0.89051816  0.53690235  0.83236413  1
  N  N51  1  0.76317571  0.41666357  0.56696296  1
  N  N52  1  0.56420545  0.51510914  0.31729879  1
  N  N53  1  0.44308088  0.43208270  0.07219713  1
  N  N54  1  0.22220275  0.53927036  0.82955864  1
  N  N55  1  0.11666698  0.44593313  0.56188016  1
  N  N56  1  0.88903226  0.53507754  0.33302173  1
  N  N57  1  0.77702480  0.43053740  0.07464371  1
  N  N58  1  0.56893263  0.51508081  0.82229880  1
  N  N59  1  0.43643386  0.43678451  0.57927920  1
  N  N60  1  0.22234243  0.86984088  0.32276981  1
  N  N61  1  0.11387216  0.75596437  0.08945547  1
  N  N62  1  0.88969104  0.87337601  0.88188494  1
  N  N63  1  0.77177772  0.78385981  0.63506483  1
  N  N64  1  0.57946656  0.86205471  0.38350372  1
  N  N65  1  0.44806815  0.75738974  0.09659526  1
  N  N66  1  0.21226244  0.86261361  0.83471434  1
  N  N67  1  0.09858254  0.75226841  0.57522699  1
  N  N68  1  0.86129301  0.89095100  0.37547490  1
  N  N69  1  0.78033337  0.76225663  0.12986886  1
  N  N70  1  0.58429457  0.85916470  0.88819736  1
  N  N71  1  0.46598127  0.74932811  0.59706852  1
