# generated using pymatgen
data_Sc5Al13N18
_symmetry_space_group_name_H-M   'P 1'
_cell_length_a   9.92908887
_cell_length_b   9.91712379
_cell_length_c   10.05851082
_cell_angle_alpha   89.49537051
_cell_angle_beta   89.53860500
_cell_angle_gamma   60.14371690
_symmetry_Int_Tables_number   1
_chemical_formula_structural   Sc5Al13N18
_chemical_formula_sum   'Sc10 Al26 N36'
_cell_volume   858.94595984
_cell_formula_units_Z   2
loop_
 _symmetry_equiv_pos_site_id
 _symmetry_equiv_pos_as_xyz
  1  'x, y, z'
loop_
 _atom_site_type_symbol
 _atom_site_label
 _atom_site_symmetry_multiplicity
 _atom_site_fract_x
 _atom_site_fract_y
 _atom_site_fract_z
 _atom_site_occupancy
  Sc  Sc0  1  0.09336373  0.10602859  0.37030768  1
  Sc  Sc1  1  0.45478265  0.09607964  0.33548188  1
  Sc  Sc2  1  0.10252916  0.10344235  0.87422106  1
  Sc  Sc3  1  0.22022096  0.21578429  0.61412425  1
  Sc  Sc4  1  0.45602071  0.09283555  0.83339098  1
  Sc  Sc5  1  0.88226367  0.54179656  0.61243951  1
  Sc  Sc6  1  0.10506005  0.75226464  0.36059267  1
  Sc  Sc7  1  0.45610236  0.75178061  0.34307993  1
  Sc  Sc8  1  0.21875523  0.86708836  0.61092456  1
  Sc  Sc9  1  0.45763501  0.75078037  0.84876510  1
  Al  Al10  1  0.21853621  0.21220765  0.13350292  1
  Al  Al11  1  0.77779375  0.09081620  0.82263863  1
  Al  Al12  1  0.87370338  0.21406408  0.63677823  1
  Al  Al13  1  0.56076957  0.20357386  0.06676424  1
  Al  Al14  1  0.76808932  0.09936576  0.31436065  1
  Al  Al15  1  0.88173753  0.21173332  0.12832834  1
  Al  Al16  1  0.56612158  0.20467783  0.57125799  1
  Al  Al17  1  0.11244570  0.43351906  0.37641920  1
  Al  Al18  1  0.22999121  0.52834287  0.12955751  1
  Al  Al19  1  0.77783564  0.42820187  0.88493222  1
  Al  Al20  1  0.44420191  0.43002005  0.38486196  1
  Al  Al21  1  0.55882856  0.52762237  0.12922485  1
  Al  Al22  1  0.10526567  0.43563737  0.88533977  1
  Al  Al23  1  0.21904755  0.54354165  0.63614360  1
  Al  Al24  1  0.76937366  0.42189546  0.37956708  1
  Al  Al25  1  0.89026701  0.53430073  0.13470803  1
  Al  Al26  1  0.44503364  0.42938923  0.88116372  1
  Al  Al27  1  0.55868088  0.52709268  0.63478007  1
  Al  Al28  1  0.22395134  0.86962333  0.10239329  1
  Al  Al29  1  0.78788517  0.76205373  0.82290503  1
  Al  Al30  1  0.87591433  0.88306148  0.56829158  1
  Al  Al31  1  0.56551483  0.86871755  0.07355620  1
  Al  Al32  1  0.11171922  0.75281078  0.88643710  1
  Al  Al33  1  0.77967904  0.76429061  0.32027513  1
  Al  Al34  1  0.88179548  0.87472526  0.07200429  1
  Al  Al35  1  0.56895911  0.86941128  0.57286961  1
  N  N36  1  0.21152621  0.22505156  0.32749325  1
  N  N37  1  0.10945075  0.09534432  0.09543052  1
  N  N38  1  0.86959192  0.21919458  0.83046881  1
  N  N39  1  0.77528282  0.09229049  0.63050759  1
  N  N40  1  0.56898049  0.21443553  0.38138911  1
  N  N41  1  0.44640535  0.09467101  0.11081556  1
  N  N42  1  0.21349162  0.22928748  0.82704625  1
  N  N43  1  0.08355463  0.11111481  0.58819795  1
  N  N44  1  0.86500735  0.21999970  0.31550700  1
  N  N45  1  0.77411009  0.09094564  0.12072431  1
  N  N46  1  0.57036126  0.20986065  0.87765914  1
  N  N47  1  0.46498643  0.08709271  0.60950951  1
  N  N48  1  0.24014595  0.51294060  0.31550607  1
  N  N49  1  0.10819589  0.42995036  0.07801684  1
  N  N50  1  0.89027041  0.53640373  0.83294950  1
  N  N51  1  0.76234702  0.41672297  0.56736055  1
  N  N52  1  0.56419439  0.51421827  0.31719190  1
  N  N53  1  0.44255737  0.43103903  0.07307147  1
  N  N54  1  0.22185762  0.53870273  0.83099018  1
  N  N55  1  0.11629094  0.44662350  0.56272006  1
  N  N56  1  0.88904760  0.53483758  0.33472849  1
  N  N57  1  0.77756821  0.43004476  0.07579658  1
  N  N58  1  0.56950201  0.51258204  0.82511060  1
  N  N59  1  0.43591051  0.43729101  0.58061671  1
  N  N60  1  0.22294208  0.87007969  0.36129814  1
  N  N61  1  0.11276925  0.75592837  0.09218387  1
  N  N62  1  0.88965918  0.87268540  0.88135175  1
  N  N63  1  0.77190831  0.78331910  0.63421252  1
  N  N64  1  0.57998193  0.86047941  0.38432747  1
  N  N65  1  0.44739423  0.75875096  0.10524436  1
  N  N66  1  0.21433820  0.86212196  0.84655479  1
  N  N67  1  0.09564117  0.75240366  0.58091750  1
  N  N68  1  0.86119153  0.89126598  0.37513337  1
  N  N69  1  0.78043298  0.76147005  0.12988679  1
  N  N70  1  0.58558652  0.85935234  0.88860269  1
  N  N71  1  0.46992878  0.74967870  0.61523385  1
