# generated using pymatgen
data_Sc5Al13N18
_symmetry_space_group_name_H-M   'P 1'
_cell_length_a   9.90503227
_cell_length_b   9.89893169
_cell_length_c   10.09499515
_cell_angle_alpha   89.64247613
_cell_angle_beta   89.85415068
_cell_angle_gamma   60.15381166
_symmetry_Int_Tables_number   1
_chemical_formula_structural   Sc5Al13N18
_chemical_formula_sum   'Sc10 Al26 N36'
_cell_volume   858.50623836
_cell_formula_units_Z   2
loop_
 _symmetry_equiv_pos_site_id
 _symmetry_equiv_pos_as_xyz
  1  'x, y, z'
loop_
 _atom_site_type_symbol
 _atom_site_label
 _atom_site_symmetry_multiplicity
 _atom_site_fract_x
 _atom_site_fract_y
 _atom_site_fract_z
 _atom_site_occupancy
  Sc  Sc0  1  0.09661100  0.10414055  0.36894647  1
  Sc  Sc1  1  0.45087253  0.09606234  0.35979063  1
  Sc  Sc2  1  0.10241778  0.09983419  0.88319055  1
  Sc  Sc3  1  0.22345927  0.21180073  0.62343282  1
  Sc  Sc4  1  0.44693600  0.10245783  0.88036704  1
  Sc  Sc5  1  0.88513235  0.54083362  0.61322493  1
  Sc  Sc6  1  0.10518419  0.75098178  0.35825983  1
  Sc  Sc7  1  0.45443907  0.74514972  0.37076249  1
  Sc  Sc8  1  0.21463911  0.86845363  0.62529800  1
  Sc  Sc9  1  0.45225744  0.75135678  0.86799316  1
  Al  Al10  1  0.21775785  0.21300639  0.13552229  1
  Al  Al11  1  0.77818780  0.09495552  0.84642655  1
  Al  Al12  1  0.87581819  0.21174739  0.63452165  1
  Al  Al13  1  0.55717849  0.21278481  0.13000431  1
  Al  Al14  1  0.77119733  0.10074774  0.34116735  1
  Al  Al15  1  0.88027883  0.21108920  0.12836265  1
  Al  Al16  1  0.55942836  0.20867723  0.63217207  1
  Al  Al17  1  0.11427776  0.43160928  0.37706513  1
  Al  Al18  1  0.23005728  0.52918435  0.12781241  1
  Al  Al19  1  0.77808858  0.42955706  0.88374124  1
  Al  Al20  1  0.44800880  0.42316382  0.38220120  1
  Al  Al21  1  0.55897495  0.53082513  0.13043918  1
  Al  Al22  1  0.10418180  0.43771206  0.88518781  1
  Al  Al23  1  0.22189222  0.54154997  0.63307599  1
  Al  Al24  1  0.77177910  0.42271505  0.37915460  1
  Al  Al25  1  0.89225157  0.53314936  0.13327548  1
  Al  Al26  1  0.44771466  0.42677485  0.87984369  1
  Al  Al27  1  0.55977992  0.52707119  0.63361746  1
  Al  Al28  1  0.22496536  0.86957104  0.13334556  1
  Al  Al29  1  0.78482654  0.76488424  0.82126262  1
  Al  Al30  1  0.87652535  0.88221912  0.56654141  1
  Al  Al31  1  0.56727498  0.86411158  0.07832568  1
  Al  Al32  1  0.11389897  0.75223844  0.88899666  1
  Al  Al33  1  0.77969192  0.76217207  0.31679402  1
  Al  Al34  1  0.88275951  0.87531611  0.06901360  1
  Al  Al35  1  0.56936803  0.86971062  0.57133543  1
  N  N36  1  0.21074514  0.22537593  0.32406647  1
  N  N37  1  0.10847640  0.09673294  0.09771492  1
  N  N38  1  0.87100423  0.21997746  0.82673387  1
  N  N39  1  0.77767734  0.09483596  0.60812794  1
  N  N40  1  0.56111195  0.22045954  0.31870893  1
  N  N41  1  0.44494468  0.09565282  0.10284983  1
  N  N42  1  0.21102918  0.22763014  0.83237362  1
  N  N43  1  0.08711853  0.10821426  0.58264433  1
  N  N44  1  0.86578536  0.21892148  0.31549502  1
  N  N45  1  0.77584104  0.09593366  0.09180968  1
  N  N46  1  0.56108237  0.21845157  0.82306785  1
  N  N47  1  0.46304870  0.09004459  0.58454120  1
  N  N48  1  0.24047675  0.51282415  0.31413585  1
  N  N49  1  0.10900527  0.43067688  0.07648525  1
  N  N50  1  0.88967945  0.53813354  0.83200074  1
  N  N51  1  0.76477705  0.41773912  0.56685276  1
  N  N52  1  0.56545179  0.51407381  0.31713312  1
  N  N53  1  0.44561472  0.42751280  0.06892289  1
  N  N54  1  0.22315840  0.53868834  0.82821233  1
  N  N55  1  0.11993301  0.44173516  0.56321399  1
  N  N56  1  0.89137924  0.53351355  0.33297113  1
  N  N57  1  0.77815971  0.43029411  0.07481122  1
  N  N58  1  0.56844094  0.51649830  0.82267105  1
  N  N59  1  0.44116765  0.43047469  0.57477649  1
  N  N60  1  0.22152977  0.87039786  0.32311860  1
  N  N61  1  0.11449412  0.75529297  0.08883316  1
  N  N62  1  0.89108629  0.87079519  0.87783043  1
  N  N63  1  0.77119156  0.78387419  0.63332521  1
  N  N64  1  0.58096324  0.85510532  0.37928571  1
  N  N65  1  0.44790114  0.75601789  0.09551845  1
  N  N66  1  0.21132896  0.86280177  0.83500040  1
  N  N67  1  0.09930246  0.75033484  0.57332457  1
  N  N68  1  0.86114547  0.88855915  0.37247348  1
  N  N69  1  0.78261385  0.76065642  0.12798822  1
  N  N70  1  0.58294913  0.86168948  0.88844327  1
  N  N71  1  0.46459495  0.74930577  0.59786421  1
