# generated using pymatgen
data_Sc5Al13N18
_symmetry_space_group_name_H-M   'P 1'
_cell_length_a   9.95311502
_cell_length_b   9.93279262
_cell_length_c   9.99809987
_cell_angle_alpha   89.69380259
_cell_angle_beta   89.86679745
_cell_angle_gamma   60.11193286
_symmetry_Int_Tables_number   1
_chemical_formula_structural   Sc5Al13N18
_chemical_formula_sum   'Sc10 Al26 N36'
_cell_volume   856.96088440
_cell_formula_units_Z   2
loop_
 _symmetry_equiv_pos_site_id
 _symmetry_equiv_pos_as_xyz
  1  'x, y, z'
loop_
 _atom_site_type_symbol
 _atom_site_label
 _atom_site_symmetry_multiplicity
 _atom_site_fract_x
 _atom_site_fract_y
 _atom_site_fract_z
 _atom_site_occupancy
  Sc  Sc0  1  0.09397361  0.10805822  0.37199126  1
  Sc  Sc1  1  0.45221698  0.09619761  0.36102805  1
  Sc  Sc2  1  0.10155644  0.10213196  0.87403610  1
  Sc  Sc3  1  0.22436796  0.21363814  0.62232460  1
  Sc  Sc4  1  0.44794576  0.10077706  0.87747199  1
  Sc  Sc5  1  0.88460564  0.54107707  0.61002162  1
  Sc  Sc6  1  0.10458611  0.75252593  0.35801103  1
  Sc  Sc7  1  0.45517817  0.74915931  0.34977531  1
  Sc  Sc8  1  0.21695180  0.86753804  0.61281331  1
  Sc  Sc9  1  0.45609966  0.75232845  0.85002021  1
  Al  Al10  1  0.21850786  0.21183850  0.13493092  1
  Al  Al11  1  0.77938698  0.09022523  0.82420036  1
  Al  Al12  1  0.87436590  0.21381606  0.63575532  1
  Al  Al13  1  0.55304000  0.21377316  0.12910104  1
  Al  Al14  1  0.77349953  0.09623762  0.31317103  1
  Al  Al15  1  0.88278885  0.21106251  0.12564369  1
  Al  Al16  1  0.55765096  0.20986381  0.63222758  1
  Al  Al17  1  0.11493989  0.43209300  0.37636849  1
  Al  Al18  1  0.22957351  0.52908628  0.12793866  1
  Al  Al19  1  0.77736224  0.42972213  0.88406157  1
  Al  Al20  1  0.44789013  0.42348715  0.38228096  1
  Al  Al21  1  0.55955777  0.52830418  0.12845237  1
  Al  Al22  1  0.10364964  0.43797180  0.88521461  1
  Al  Al23  1  0.22052979  0.54238764  0.63388818  1
  Al  Al24  1  0.77028264  0.42179400  0.37847762  1
  Al  Al25  1  0.89188682  0.53344747  0.13443451  1
  Al  Al26  1  0.44702518  0.42673492  0.87983908  1
  Al  Al27  1  0.55995410  0.52639640  0.63296698  1
  Al  Al28  1  0.22368973  0.87024355  0.11109160  1
  Al  Al29  1  0.78607721  0.76317844  0.82170099  1
  Al  Al30  1  0.87555156  0.88341594  0.56674894  1
  Al  Al31  1  0.56781800  0.86364246  0.07803327  1
  Al  Al32  1  0.11230994  0.75273215  0.88474791  1
  Al  Al33  1  0.78072952  0.76278862  0.31945937  1
  Al  Al34  1  0.88193987  0.87504993  0.06950603  1
  Al  Al35  1  0.56978970  0.86811731  0.57234603  1
  N  N36  1  0.21194485  0.22494869  0.32580776  1
  N  N37  1  0.10979610  0.09517695  0.09496314  1
  N  N38  1  0.86822268  0.22009318  0.83156788  1
  N  N39  1  0.77919169  0.09124177  0.62484635  1
  N  N40  1  0.56067439  0.22068374  0.32067925  1
  N  N41  1  0.44464186  0.09510103  0.10266328  1
  N  N42  1  0.21245848  0.22916519  0.83269468  1
  N  N43  1  0.08553341  0.11174893  0.59105788  1
  N  N44  1  0.86623547  0.21919802  0.31539314  1
  N  N45  1  0.77751364  0.09079731  0.11178939  1
  N  N46  1  0.56052578  0.21826061  0.82654910  1
  N  N47  1  0.46437454  0.08883139  0.58791553  1
  N  N48  1  0.24036076  0.51380479  0.31539245  1
  N  N49  1  0.10839092  0.43054163  0.07826563  1
  N  N50  1  0.88963239  0.53728529  0.83209701  1
  N  N51  1  0.76379990  0.41707979  0.56756862  1
  N  N52  1  0.56494547  0.51345856  0.31766017  1
  N  N53  1  0.44459276  0.42770968  0.06986742  1
  N  N54  1  0.22235826  0.53859936  0.82991894  1
  N  N55  1  0.11953364  0.44277261  0.56399100  1
  N  N56  1  0.89105276  0.53383298  0.33575081  1
  N  N57  1  0.77809255  0.43065920  0.07606588  1
  N  N58  1  0.56853203  0.51476911  0.82492956  1
  N  N59  1  0.44048406  0.43084355  0.57647980  1
  N  N60  1  0.22030935  0.87255492  0.35288713  1
  N  N61  1  0.11354000  0.75582782  0.09096333  1
  N  N62  1  0.88998537  0.87183949  0.87845515  1
  N  N63  1  0.77197806  0.78318977  0.63233581  1
  N  N64  1  0.58180872  0.85546442  0.38025381  1
  N  N65  1  0.44739644  0.75738681  0.10411807  1
  N  N66  1  0.21362868  0.86185630  0.84164572  1
  N  N67  1  0.09647874  0.75099688  0.57850613  1
  N  N68  1  0.86070799  0.89092178  0.37332695  1
  N  N69  1  0.78297685  0.75989778  0.12853328  1
  N  N70  1  0.58495054  0.86024014  0.88881237  1
  N  N71  1  0.46839486  0.74921893  0.61005137  1
