# generated using pymatgen
data_Sc5Al13N18
_symmetry_space_group_name_H-M   'P 1'
_cell_length_a   9.89844641
_cell_length_b   9.89298758
_cell_length_c   10.13848557
_cell_angle_alpha   89.66242618
_cell_angle_beta   89.87676430
_cell_angle_gamma   60.14271670
_symmetry_Int_Tables_number   1
_chemical_formula_structural   Sc5Al13N18
_chemical_formula_sum   'Sc10 Al26 N36'
_cell_volume   861.02006486
_cell_formula_units_Z   2
loop_
 _symmetry_equiv_pos_site_id
 _symmetry_equiv_pos_as_xyz
  1  'x, y, z'
loop_
 _atom_site_type_symbol
 _atom_site_label
 _atom_site_symmetry_multiplicity
 _atom_site_fract_x
 _atom_site_fract_y
 _atom_site_fract_z
 _atom_site_occupancy
  Sc  Sc0  1  0.09626113  0.10475140  0.37028296  1
  Sc  Sc1  1  0.45138509  0.09668365  0.36171527  1
  Sc  Sc2  1  0.10239266  0.09968985  0.88321177  1
  Sc  Sc3  1  0.22359705  0.21211125  0.62448385  1
  Sc  Sc4  1  0.44721057  0.10205758  0.88068560  1
  Sc  Sc5  1  0.88506896  0.54108732  0.61337804  1
  Sc  Sc6  1  0.10469026  0.75154024  0.35946075  1
  Sc  Sc7  1  0.45413022  0.74580659  0.37014519  1
  Sc  Sc8  1  0.21494482  0.86821530  0.62548525  1
  Sc  Sc9  1  0.45196087  0.75116723  0.86864789  1
  Al  Al10  1  0.21795933  0.21284821  0.13602947  1
  Al  Al11  1  0.78077883  0.08982007  0.82090827  1
  Al  Al12  1  0.87711969  0.21294549  0.63477823  1
  Al  Al13  1  0.55294843  0.21435828  0.13023059  1
  Al  Al14  1  0.77398898  0.09572895  0.31170038  1
  Al  Al15  1  0.88279549  0.21248656  0.12851966  1
  Al  Al16  1  0.55731113  0.21008702  0.63256397  1
  Al  Al17  1  0.11439808  0.43163266  0.37726275  1
  Al  Al18  1  0.22931591  0.53002830  0.12836116  1
  Al  Al19  1  0.77796840  0.42925409  0.88401212  1
  Al  Al20  1  0.44841208  0.42279096  0.38231019  1
  Al  Al21  1  0.55887117  0.53092813  0.13109508  1
  Al  Al22  1  0.10406914  0.43771062  0.88563761  1
  Al  Al23  1  0.22132840  0.54199931  0.63347744  1
  Al  Al24  1  0.77161721  0.42213969  0.37956944  1
  Al  Al25  1  0.89221110  0.53345665  0.13439928  1
  Al  Al26  1  0.44783060  0.42654600  0.88020372  1
  Al  Al27  1  0.55951028  0.52740158  0.63394810  1
  Al  Al28  1  0.22451466  0.86989145  0.13390379  1
  Al  Al29  1  0.78488239  0.76463756  0.82134981  1
  Al  Al30  1  0.87536236  0.88370484  0.56487478  1
  Al  Al31  1  0.56744497  0.86388745  0.07816554  1
  Al  Al32  1  0.11357130  0.75270291  0.88936165  1
  Al  Al33  1  0.77983970  0.76282233  0.31738486  1
  Al  Al34  1  0.88234399  0.87561369  0.06830308  1
  Al  Al35  1  0.56971457  0.86924327  0.57128576  1
  N  N36  1  0.21109277  0.22534398  0.32374127  1
  N  N37  1  0.10917202  0.09660670  0.09676098  1
  N  N38  1  0.87103299  0.21976161  0.82809097  1
  N  N39  1  0.78028373  0.09059761  0.62513007  1
  N  N40  1  0.56032425  0.22099367  0.31895335  1
  N  N41  1  0.44453821  0.09554065  0.10194563  1
  N  N42  1  0.21110181  0.22771780  0.83226674  1
  N  N43  1  0.08742385  0.10840223  0.58305526  1
  N  N44  1  0.86685891  0.21971393  0.31562910  1
  N  N45  1  0.77836634  0.09076986  0.11387073  1
  N  N46  1  0.56058594  0.21849052  0.82424102  1
  N  N47  1  0.46339394  0.08996262  0.58492711  1
  N  N48  1  0.24008813  0.51355474  0.31411077  1
  N  N49  1  0.10883414  0.43079125  0.07653295  1
  N  N50  1  0.88974291  0.53793625  0.83156175  1
  N  N51  1  0.76448119  0.41748938  0.56681458  1
  N  N52  1  0.56523494  0.51446415  0.31713785  1
  N  N53  1  0.44522473  0.42802415  0.06874627  1
  N  N54  1  0.22261976  0.53912338  0.82809598  1
  N  N55  1  0.11999710  0.44168788  0.56295795  1
  N  N56  1  0.89130280  0.53389261  0.33334333  1
  N  N57  1  0.77788070  0.43083975  0.07456384  1
  N  N58  1  0.56823964  0.51655173  0.82237334  1
  N  N59  1  0.44119181  0.43044562  0.57477126  1
  N  N60  1  0.22074382  0.87105688  0.32279465  1
  N  N61  1  0.11439831  0.75551945  0.08813528  1
  N  N62  1  0.88944279  0.87294552  0.87936359  1
  N  N63  1  0.77145890  0.78418908  0.63385398  1
  N  N64  1  0.58117049  0.85523679  0.38012868  1
  N  N65  1  0.44767063  0.75617944  0.09593411  1
  N  N66  1  0.21114939  0.86267056  0.83410495  1
  N  N67  1  0.09899197  0.75067494  0.57319140  1
  N  N68  1  0.85987564  0.89098472  0.37421763  1
  N  N69  1  0.78263193  0.76088679  0.12890260  1
  N  N70  1  0.58328420  0.86081670  0.88897627  1
  N  N71  1  0.46474227  0.74920100  0.59744479  1
