# generated using pymatgen
data_Sc5Al13N18
_symmetry_space_group_name_H-M   'P 1'
_cell_length_a   9.86853386
_cell_length_b   9.82483428
_cell_length_c   10.35716768
_cell_angle_alpha   89.11186465
_cell_angle_beta   89.83133587
_cell_angle_gamma   59.85583393
_symmetry_Int_Tables_number   1
_chemical_formula_structural   Sc5Al13N18
_chemical_formula_sum   'Sc10 Al26 N36'
_cell_volume   868.27597851
_cell_formula_units_Z   2
loop_
 _symmetry_equiv_pos_site_id
 _symmetry_equiv_pos_as_xyz
  1  'x, y, z'
loop_
 _atom_site_type_symbol
 _atom_site_label
 _atom_site_symmetry_multiplicity
 _atom_site_fract_x
 _atom_site_fract_y
 _atom_site_fract_z
 _atom_site_occupancy
  Sc  Sc0  1  0.10205241  0.09736907  0.30332925  1
  Sc  Sc1  1  0.45304515  0.09807097  0.31604331  1
  Sc  Sc2  1  0.09690715  0.10565421  0.82834945  1
  Sc  Sc3  1  0.22011795  0.21159382  0.56372417  1
  Sc  Sc4  1  0.45262323  0.09738124  0.81667178  1
  Sc  Sc5  1  0.88396004  0.53912999  0.61778219  1
  Sc  Sc6  1  0.10506166  0.75704992  0.32601573  1
  Sc  Sc7  1  0.45126033  0.75839757  0.31668728  1
  Sc  Sc8  1  0.22344897  0.87108443  0.58081815  1
  Sc  Sc9  1  0.45587389  0.75343376  0.83520859  1
  Al  Al10  1  0.22424397  0.20610100  0.05921944  1
  Al  Al11  1  0.77589249  0.09878340  0.81267580  1
  Al  Al12  1  0.87802015  0.20220472  0.55866271  1
  Al  Al13  1  0.56363020  0.19976934  0.05919713  1
  Al  Al14  1  0.77283267  0.09755750  0.31349317  1
  Al  Al15  1  0.88199430  0.20131230  0.06151319  1
  Al  Al16  1  0.56438880  0.20394751  0.56251451  1
  Al  Al17  1  0.11085014  0.42725822  0.32946188  1
  Al  Al18  1  0.23110157  0.53170233  0.12352123  1
  Al  Al19  1  0.77364458  0.43275421  0.88506138  1
  Al  Al20  1  0.44609554  0.43015398  0.38135772  1
  Al  Al21  1  0.55995786  0.52609756  0.12505454  1
  Al  Al22  1  0.10438669  0.44217222  0.87211993  1
  Al  Al23  1  0.22688686  0.53646635  0.63602183  1
  Al  Al24  1  0.76980731  0.42688661  0.37584788  1
  Al  Al25  1  0.88433927  0.53790853  0.12755590  1
  Al  Al26  1  0.44558475  0.43068310  0.88105598  1
  Al  Al27  1  0.56081603  0.52715124  0.63151438  1
  Al  Al28  1  0.21967953  0.86456735  0.05438935  1
  Al  Al29  1  0.78236196  0.76790810  0.81717327  1
  Al  Al30  1  0.87863377  0.88060217  0.56804176  1
  Al  Al31  1  0.56427310  0.87027171  0.06289778  1
  Al  Al32  1  0.10021799  0.76357700  0.81543995  1
  Al  Al33  1  0.77891927  0.76480734  0.31447908  1
  Al  Al34  1  0.88937791  0.87131972  0.06235505  1
  Al  Al35  1  0.56745840  0.87066875  0.56540372  1
  N  N36  1  0.21500562  0.21487299  0.35791512  1
  N  N37  1  0.10980588  0.09215840  0.09308998  1
  N  N38  1  0.86580061  0.21170697  0.87966780  1
  N  N39  1  0.77530610  0.09747904  0.62682018  1
  N  N40  1  0.56963809  0.21064980  0.37808739  1
  N  N41  1  0.44672038  0.09451805  0.10572142  1
  N  N42  1  0.21763995  0.22403869  0.87458469  1
  N  N43  1  0.08344256  0.11201999  0.62248040  1
  N  N44  1  0.87513219  0.20337991  0.36991525  1
  N  N45  1  0.77748906  0.09130215  0.12549554  1
  N  N46  1  0.56993241  0.20823567  0.87539820  1
  N  N47  1  0.46210298  0.08988182  0.60835926  1
  N  N48  1  0.24300509  0.51043390  0.30948684  1
  N  N49  1  0.10705155  0.43202509  0.09059698  1
  N  N50  1  0.88729117  0.53850293  0.83331064  1
  N  N51  1  0.76020898  0.42445459  0.56003807  1
  N  N52  1  0.56518698  0.51441164  0.30881745  1
  N  N53  1  0.44395758  0.43059395  0.06710057  1
  N  N54  1  0.22747112  0.53564882  0.82721156  1
  N  N55  1  0.11604636  0.44509580  0.58405188  1
  N  N56  1  0.88731570  0.53295711  0.32134694  1
  N  N57  1  0.77496874  0.43265384  0.07315865  1
  N  N58  1  0.57048878  0.51057402  0.81710756  1
  N  N59  1  0.43754964  0.43972147  0.57095971  1
  N  N60  1  0.22317512  0.86983897  0.37777205  1
  N  N61  1  0.10817615  0.76231293  0.11432862  1
  N  N62  1  0.88843996  0.87492705  0.87602991  1
  N  N63  1  0.76948322  0.78586877  0.63317998  1
  N  N64  1  0.57783688  0.86010011  0.38102403  1
  N  N65  1  0.44488966  0.76055004  0.09920627  1
  N  N66  1  0.21326297  0.85968066  0.86872125  1
  N  N67  1  0.09293603  0.76199933  0.62603290  1
  N  N68  1  0.86776534  0.88319618  0.38057378  1
  N  N69  1  0.77781370  0.76738314  0.12649017  1
  N  N70  1  0.58133480  0.86384943  0.88398546  1
  N  N71  1  0.46849565  0.75480752  0.62171309  1
