# generated using pymatgen
data_Sc5Al13N18
_symmetry_space_group_name_H-M   'P 1'
_cell_length_a   9.92476639
_cell_length_b   9.89971231
_cell_length_c   10.01334353
_cell_angle_alpha   89.75469621
_cell_angle_beta   89.56763951
_cell_angle_gamma   60.07393984
_symmetry_Int_Tables_number   1
_chemical_formula_structural   Sc5Al13N18
_chemical_formula_sum   'Sc10 Al26 N36'
_cell_volume   852.63522098
_cell_formula_units_Z   2
loop_
 _symmetry_equiv_pos_site_id
 _symmetry_equiv_pos_as_xyz
  1  'x, y, z'
loop_
 _atom_site_type_symbol
 _atom_site_label
 _atom_site_symmetry_multiplicity
 _atom_site_fract_x
 _atom_site_fract_y
 _atom_site_fract_z
 _atom_site_occupancy
  Sc  Sc0  1  0.09459320  0.10392720  0.37778707  1
  Sc  Sc1  1  0.44928937  0.10000968  0.36668181  1
  Sc  Sc2  1  0.10069257  0.10136578  0.89158220  1
  Sc  Sc3  1  0.22250410  0.21303778  0.62990647  1
  Sc  Sc4  1  0.44745545  0.10323646  0.88718260  1
  Sc  Sc5  1  0.88348091  0.54267552  0.62950440  1
  Sc  Sc6  1  0.10070963  0.75187335  0.38323487  1
  Sc  Sc7  1  0.45330005  0.74703742  0.37312469  1
  Sc  Sc8  1  0.22034172  0.86899702  0.63437903  1
  Sc  Sc9  1  0.45075228  0.75181402  0.88161149  1
  Al  Al10  1  0.21721374  0.21345511  0.14631504  1
  Al  Al11  1  0.77532332  0.09971203  0.89118580  1
  Al  Al12  1  0.87367425  0.20994530  0.64290383  1
  Al  Al13  1  0.56088892  0.21217389  0.14350075  1
  Al  Al14  1  0.77194547  0.09906234  0.39333933  1
  Al  Al15  1  0.87801876  0.20975552  0.14226431  1
  Al  Al16  1  0.56197795  0.20692474  0.63990103  1
  Al  Al17  1  0.11226246  0.43380825  0.38670799  1
  Al  Al18  1  0.22864532  0.53167004  0.13746676  1
  Al  Al19  1  0.77694706  0.42662532  0.89365305  1
  Al  Al20  1  0.44791753  0.42346941  0.39208616  1
  Al  Al21  1  0.55933088  0.52886931  0.14059017  1
  Al  Al22  1  0.10739885  0.43569390  0.89687250  1
  Al  Al23  1  0.22285443  0.54070845  0.64625827  1
  Al  Al24  1  0.77182779  0.42176042  0.38905891  1
  Al  Al25  1  0.89255075  0.53120118  0.13989955  1
  Al  Al26  1  0.44857984  0.42593968  0.88873560  1
  Al  Al27  1  0.55983026  0.52854288  0.64164646  1
  Al  Al28  1  0.22111490  0.86909974  0.14435381  1
  Al  Al29  1  0.78859720  0.75741112  0.87336917  1
  Al  Al30  1  0.88553437  0.87829833  0.64980744  1
  Al  Al31  1  0.56302881  0.86759701  0.09397395  1
  Al  Al32  1  0.10866070  0.75744888  0.89764927  1
  Al  Al33  1  0.78279332  0.75874852  0.33450840  1
  Al  Al34  1  0.88586944  0.87993021  0.13613717  1
  Al  Al35  1  0.57113871  0.86934702  0.57587728  1
  N  N36  1  0.20862510  0.22637803  0.33663162  1
  N  N37  1  0.10713756  0.09678408  0.10957140  1
  N  N38  1  0.86841801  0.21705237  0.83412614  1
  N  N39  1  0.77809236  0.09333668  0.58609537  1
  N  N40  1  0.56736412  0.21790301  0.33189360  1
  N  N41  1  0.44486060  0.09842655  0.11450370  1
  N  N42  1  0.21141896  0.22721210  0.84128344  1
  N  N43  1  0.08643837  0.10819904  0.59399533  1
  N  N44  1  0.86292162  0.21544116  0.32845178  1
  N  N45  1  0.77553170  0.09747264  0.08133209  1
  N  N46  1  0.56667313  0.21586914  0.83030181  1
  N  N47  1  0.46334788  0.08973584  0.59436181  1
  N  N48  1  0.23910266  0.51590052  0.32528045  1
  N  N49  1  0.11079278  0.42927177  0.08817676  1
  N  N50  1  0.89058748  0.53695059  0.84986262  1
  N  N51  1  0.76561413  0.41687540  0.57791979  1
  N  N52  1  0.56577796  0.51363899  0.32809295  1
  N  N53  1  0.44636965  0.42631380  0.07970204  1
  N  N54  1  0.22342806  0.53865868  0.84105886  1
  N  N55  1  0.11841837  0.44487717  0.57427757  1
  N  N56  1  0.89062405  0.53350012  0.33907473  1
  N  N57  1  0.77810985  0.42692225  0.08545866  1
  N  N58  1  0.56798223  0.51755244  0.83283835  1
  N  N59  1  0.44120755  0.43065123  0.58598008  1
  N  N60  1  0.21777843  0.86806570  0.33638936  1
  N  N61  1  0.11043650  0.75812314  0.09351230  1
  N  N62  1  0.89166791  0.87608762  0.84705961  1
  N  N63  1  0.77505406  0.77834178  0.62062332  1
  N  N64  1  0.57792770  0.85984425  0.37694776  1
  N  N65  1  0.44601663  0.75599010  0.10990639  1
  N  N66  1  0.21232819  0.86404216  0.84585816  1
  N  N67  1  0.09839076  0.75373996  0.59476868  1
  N  N68  1  0.86758285  0.89101908  0.32661224  1
  N  N69  1  0.78543704  0.75516942  0.11742206  1
  N  N70  1  0.57738639  0.86430948  0.89956999  1
  N  N71  1  0.46738642  0.74882912  0.60203621  1
