# generated using pymatgen
data_Sc5Al13N18
_symmetry_space_group_name_H-M   'P 1'
_cell_length_a   9.91391651
_cell_length_b   9.87420819
_cell_length_c   10.15642344
_cell_angle_alpha   89.58712198
_cell_angle_beta   90.02159489
_cell_angle_gamma   60.04172875
_symmetry_Int_Tables_number   1
_chemical_formula_structural   Sc5Al13N18
_chemical_formula_sum   'Sc10 Al26 N36'
_cell_volume   861.36174793
_cell_formula_units_Z   2
loop_
 _symmetry_equiv_pos_site_id
 _symmetry_equiv_pos_as_xyz
  1  'x, y, z'
loop_
 _atom_site_type_symbol
 _atom_site_label
 _atom_site_symmetry_multiplicity
 _atom_site_fract_x
 _atom_site_fract_y
 _atom_site_fract_z
 _atom_site_occupancy
  Sc  Sc0  1  0.09960121  0.09496912  0.32404419  1
  Sc  Sc1  1  0.45585105  0.09471506  0.33679580  1
  Sc  Sc2  1  0.09759325  0.10576723  0.84059171  1
  Sc  Sc3  1  0.21934860  0.21453529  0.60548109  1
  Sc  Sc4  1  0.45640841  0.09277751  0.82759156  1
  Sc  Sc5  1  0.88414026  0.54022912  0.62030962  1
  Sc  Sc6  1  0.10400959  0.75729112  0.33649153  1
  Sc  Sc7  1  0.45017480  0.75688718  0.32670173  1
  Sc  Sc8  1  0.22389500  0.86822775  0.59477733  1
  Sc  Sc9  1  0.45716639  0.75101156  0.84745139  1
  Al  Al10  1  0.22148460  0.21266902  0.12877564  1
  Al  Al11  1  0.77646326  0.09850209  0.82191122  1
  Al  Al12  1  0.87440035  0.20435465  0.56576614  1
  Al  Al13  1  0.56176990  0.20211415  0.06877213  1
  Al  Al14  1  0.77103985  0.09850363  0.31896865  1
  Al  Al15  1  0.88176552  0.20370154  0.07304209  1
  Al  Al16  1  0.56460245  0.20590299  0.57049325  1
  Al  Al17  1  0.11181913  0.43464171  0.37626157  1
  Al  Al18  1  0.22896898  0.53161943  0.12995630  1
  Al  Al19  1  0.77559482  0.43202567  0.89073780  1
  Al  Al20  1  0.44512422  0.43126809  0.38551403  1
  Al  Al21  1  0.55974192  0.52692102  0.12964353  1
  Al  Al22  1  0.10800241  0.43470348  0.88711367  1
  Al  Al23  1  0.22428656  0.53632205  0.63792630  1
  Al  Al24  1  0.76922741  0.42895493  0.37993455  1
  Al  Al25  1  0.89095084  0.53538724  0.13636816  1
  Al  Al26  1  0.44381594  0.42971164  0.88481931  1
  Al  Al27  1  0.56044467  0.52753812  0.63854746  1
  Al  Al28  1  0.21891096  0.86552960  0.06281307  1
  Al  Al29  1  0.78477918  0.76396645  0.82584218  1
  Al  Al30  1  0.87640683  0.88236132  0.57517978  1
  Al  Al31  1  0.56569147  0.86980192  0.07344457  1
  Al  Al32  1  0.09978715  0.76028577  0.82289364  1
  Al  Al33  1  0.78054603  0.76376504  0.32195518  1
  Al  Al34  1  0.88951657  0.87172507  0.07007864  1
  Al  Al35  1  0.56888650  0.86669542  0.57282211  1
  N  N36  1  0.21135055  0.22362438  0.32963760  1
  N  N37  1  0.11063988  0.09367192  0.10312481  1
  N  N38  1  0.86637571  0.21249251  0.88691293  1
  N  N39  1  0.77433840  0.09814599  0.63332240  1
  N  N40  1  0.56915594  0.21390436  0.38247370  1
  N  N41  1  0.44768762  0.09465374  0.11480913  1
  N  N42  1  0.21526615  0.23043144  0.82366871  1
  N  N43  1  0.08132641  0.11013398  0.62153602  1
  N  N44  1  0.86962760  0.20797454  0.37346719  1
  N  N45  1  0.77689856  0.09190079  0.12990741  1
  N  N46  1  0.56956548  0.20886158  0.88075009  1
  N  N47  1  0.46493625  0.08708734  0.60652692  1
  N  N48  1  0.24054161  0.51315040  0.31726232  1
  N  N49  1  0.10941006  0.43080111  0.07810957  1
  N  N50  1  0.89027251  0.53602894  0.83706602  1
  N  N51  1  0.76031525  0.42518620  0.56885207  1
  N  N52  1  0.56445664  0.51569605  0.31645549  1
  N  N53  1  0.44217045  0.43143203  0.07459630  1
  N  N54  1  0.22499840  0.53397287  0.83046433  1
  N  N55  1  0.11579142  0.44911618  0.56026416  1
  N  N56  1  0.89082691  0.53402996  0.33241717  1
  N  N57  1  0.77675567  0.43346563  0.08317057  1
  N  N58  1  0.57065469  0.51000208  0.82689475  1
  N  N59  1  0.43695160  0.43903358  0.57927710  1
  N  N60  1  0.22427291  0.86696111  0.38814738  1
  N  N61  1  0.10805541  0.76242857  0.12016857  1
  N  N62  1  0.88842665  0.87482364  0.88130862  1
  N  N63  1  0.77041420  0.78383291  0.63834177  1
  N  N64  1  0.58008644  0.85541434  0.38584006  1
  N  N65  1  0.44437923  0.76046518  0.10422161  1
  N  N66  1  0.21292704  0.85921664  0.87160997  1
  N  N67  1  0.09088609  0.75936628  0.62860435  1
  N  N68  1  0.86527274  0.88673205  0.38556549  1
  N  N69  1  0.78128883  0.76452509  0.13208437  1
  N  N70  1  0.58402311  0.86023762  0.89137633  1
  N  N71  1  0.46972261  0.75257205  0.62794004  1
