# generated using pymatgen
data_Sc5Al13N18
_symmetry_space_group_name_H-M   'P 1'
_cell_length_a   9.87442043
_cell_length_b   9.83033386
_cell_length_c   10.29248366
_cell_angle_alpha   89.37306844
_cell_angle_beta   90.01441605
_cell_angle_gamma   59.94346752
_symmetry_Int_Tables_number   1
_chemical_formula_structural   Sc5Al13N18
_chemical_formula_sum   'Sc10 Al26 N36'
_cell_volume   864.66423300
_cell_formula_units_Z   2
loop_
 _symmetry_equiv_pos_site_id
 _symmetry_equiv_pos_as_xyz
  1  'x, y, z'
loop_
 _atom_site_type_symbol
 _atom_site_label
 _atom_site_symmetry_multiplicity
 _atom_site_fract_x
 _atom_site_fract_y
 _atom_site_fract_z
 _atom_site_occupancy
  Sc  Sc0  1  0.10203394  0.09960621  0.31512399  1
  Sc  Sc1  1  0.45099426  0.09818907  0.32906441  1
  Sc  Sc2  1  0.09678260  0.10359571  0.83385817  1
  Sc  Sc3  1  0.22041119  0.21111913  0.58315309  1
  Sc  Sc4  1  0.45773888  0.09264368  0.82050263  1
  Sc  Sc5  1  0.88294856  0.54042767  0.62340401  1
  Sc  Sc6  1  0.10331313  0.75842361  0.33093090  1
  Sc  Sc7  1  0.44976564  0.75839630  0.32160171  1
  Sc  Sc8  1  0.22333384  0.86914697  0.58774215  1
  Sc  Sc9  1  0.45601824  0.75222268  0.84414383  1
  Al  Al10  1  0.22594155  0.20516581  0.07212835  1
  Al  Al11  1  0.77589130  0.09901345  0.81933899  1
  Al  Al12  1  0.87564846  0.20376934  0.56376826  1
  Al  Al13  1  0.56271060  0.20081844  0.06623994  1
  Al  Al14  1  0.77191603  0.09847330  0.31816129  1
  Al  Al15  1  0.88231347  0.20264338  0.06866230  1
  Al  Al16  1  0.56442338  0.20582448  0.56684696  1
  Al  Al17  1  0.11057974  0.43558371  0.37954859  1
  Al  Al18  1  0.22928322  0.52922701  0.13049650  1
  Al  Al19  1  0.77493765  0.43246460  0.89022018  1
  Al  Al20  1  0.44499314  0.43164519  0.38456288  1
  Al  Al21  1  0.56054553  0.52602392  0.12901497  1
  Al  Al22  1  0.10545099  0.44032643  0.88698689  1
  Al  Al23  1  0.22421034  0.53762468  0.63781159  1
  Al  Al24  1  0.76981111  0.42877629  0.38030373  1
  Al  Al25  1  0.89203216  0.53391620  0.13645748  1
  Al  Al26  1  0.44386594  0.42983736  0.88498365  1
  Al  Al27  1  0.55981211  0.52798369  0.63758530  1
  Al  Al28  1  0.21946160  0.86421349  0.06055079  1
  Al  Al29  1  0.78381903  0.76573166  0.82400960  1
  Al  Al30  1  0.87673207  0.88210722  0.57351675  1
  Al  Al31  1  0.56614177  0.86900333  0.07044666  1
  Al  Al32  1  0.10001197  0.76132141  0.82075196  1
  Al  Al33  1  0.77976179  0.76399397  0.32013267  1
  Al  Al34  1  0.88954893  0.87135648  0.06804761  1
  Al  Al35  1  0.56806597  0.86801975  0.57027807  1
  N  N36  1  0.21382124  0.21770282  0.36865530  1
  N  N37  1  0.11132948  0.09337086  0.10006729  1
  N  N38  1  0.86620303  0.21197850  0.88568362  1
  N  N39  1  0.77396547  0.09877321  0.63245175  1
  N  N40  1  0.56909244  0.21285407  0.38169071  1
  N  N41  1  0.44667617  0.09436816  0.11363539  1
  N  N42  1  0.21891348  0.22377465  0.85768894  1
  N  N43  1  0.08168810  0.11061846  0.62537199  1
  N  N44  1  0.87261486  0.20594656  0.37455806  1
  N  N45  1  0.77777280  0.09169651  0.13012926  1
  N  N46  1  0.56995702  0.20783320  0.88122606  1
  N  N47  1  0.46458569  0.08848172  0.60895817  1
  N  N48  1  0.24011372  0.51128118  0.31551897  1
  N  N49  1  0.10855452  0.43230363  0.07667421  1
  N  N50  1  0.88977173  0.53639279  0.83567629  1
  N  N51  1  0.75954527  0.42621897  0.56644785  1
  N  N52  1  0.56506795  0.51531050  0.31380370  1
  N  N53  1  0.44221594  0.43127454  0.07265562  1
  N  N54  1  0.22590149  0.53320426  0.82769709  1
  N  N55  1  0.11281983  0.45318531  0.56357587  1
  N  N56  1  0.89160870  0.53228305  0.32905070  1
  N  N57  1  0.77706216  0.43314781  0.07999276  1
  N  N58  1  0.57039094  0.50978490  0.82397054  1
  N  N59  1  0.43617633  0.44058143  0.57593413  1
  N  N60  1  0.22266542  0.86937970  0.38381123  1
  N  N61  1  0.10826277  0.76160115  0.11912108  1
  N  N62  1  0.88852741  0.87476808  0.88104739  1
  N  N63  1  0.76925490  0.78536416  0.63872823  1
  N  N64  1  0.57892651  0.85692292  0.38564162  1
  N  N65  1  0.44497262  0.76023564  0.10318053  1
  N  N66  1  0.21296905  0.85811012  0.87369707  1
  N  N67  1  0.09073605  0.76184007  0.63019606  1
  N  N68  1  0.86595489  0.88524286  0.38577731  1
  N  N69  1  0.78072502  0.76500831  0.13198770  1
  N  N70  1  0.58350147  0.86118279  0.89080044  1
  N  N71  1  0.46810507  0.75479435  0.62845623  1
