# generated using pymatgen
data_Sc5Al13N18
_symmetry_space_group_name_H-M   'P 1'
_cell_length_a   9.86605900
_cell_length_b   9.82863864
_cell_length_c   10.34968363
_cell_angle_alpha   89.17853852
_cell_angle_beta   89.81012524
_cell_angle_gamma   59.89380829
_symmetry_Int_Tables_number   1
_chemical_formula_structural   Sc5Al13N18
_chemical_formula_sum   'Sc10 Al26 N36'
_cell_volume   868.12060950
_cell_formula_units_Z   2
loop_
 _symmetry_equiv_pos_site_id
 _symmetry_equiv_pos_as_xyz
  1  'x, y, z'
loop_
 _atom_site_type_symbol
 _atom_site_label
 _atom_site_symmetry_multiplicity
 _atom_site_fract_x
 _atom_site_fract_y
 _atom_site_fract_z
 _atom_site_occupancy
  Sc  Sc0  1  0.10250686  0.09922015  0.30376116  1
  Sc  Sc1  1  0.45041749  0.10040633  0.31624033  1
  Sc  Sc2  1  0.09749546  0.10481634  0.82972133  1
  Sc  Sc3  1  0.21985918  0.21173368  0.56560201  1
  Sc  Sc4  1  0.45272950  0.09701881  0.81843691  1
  Sc  Sc5  1  0.88172265  0.54524803  0.59255391  1
  Sc  Sc6  1  0.10471488  0.75777515  0.32664168  1
  Sc  Sc7  1  0.45128549  0.75869405  0.31707785  1
  Sc  Sc8  1  0.22378430  0.87068197  0.58064236  1
  Sc  Sc9  1  0.45625214  0.75292264  0.83552041  1
  Al  Al10  1  0.22064085  0.21187934  0.05706428  1
  Al  Al11  1  0.77580547  0.09780115  0.81307849  1
  Al  Al12  1  0.87889225  0.20117029  0.55963307  1
  Al  Al13  1  0.56345851  0.19959866  0.05980212  1
  Al  Al14  1  0.77293284  0.09753332  0.31348632  1
  Al  Al15  1  0.88207839  0.20097358  0.06123441  1
  Al  Al16  1  0.56472879  0.20330220  0.56235547  1
  Al  Al17  1  0.10794649  0.42572268  0.30641941  1
  Al  Al18  1  0.23116592  0.53208670  0.12446703  1
  Al  Al19  1  0.77401798  0.43154779  0.88211785  1
  Al  Al20  1  0.44609431  0.43024143  0.38096573  1
  Al  Al21  1  0.56033923  0.52599370  0.12575251  1
  Al  Al22  1  0.10768929  0.43533359  0.81705748  1
  Al  Al23  1  0.23196645  0.53829970  0.63743823  1
  Al  Al24  1  0.76998127  0.42702243  0.37708447  1
  Al  Al25  1  0.88542300  0.54094406  0.09951856  1
  Al  Al26  1  0.44502173  0.43102289  0.88276472  1
  Al  Al27  1  0.56122263  0.52636756  0.63279656  1
  Al  Al28  1  0.21961169  0.86482769  0.05471990  1
  Al  Al29  1  0.78341526  0.76464553  0.81589745  1
  Al  Al30  1  0.87774840  0.88195342  0.56731182  1
  Al  Al31  1  0.56304130  0.87081886  0.06327960  1
  Al  Al32  1  0.10071991  0.76252109  0.81693239  1
  Al  Al33  1  0.77989426  0.76240558  0.31585272  1
  Al  Al34  1  0.88967635  0.87106068  0.06201221  1
  Al  Al35  1  0.56597644  0.87203816  0.56492985  1
  N  N36  1  0.21234156  0.21954632  0.36320860  1
  N  N37  1  0.10969844  0.09280792  0.09258785  1
  N  N38  1  0.86593267  0.21084139  0.87916525  1
  N  N39  1  0.77531801  0.09703666  0.62698654  1
  N  N40  1  0.56957126  0.21064640  0.37787994  1
  N  N41  1  0.44504848  0.09549029  0.10530287  1
  N  N42  1  0.21596327  0.22693361  0.87492896  1
  N  N43  1  0.08484009  0.11053135  0.62308704  1
  N  N44  1  0.87541547  0.20360074  0.37034259  1
  N  N45  1  0.77758933  0.09070854  0.12532355  1
  N  N46  1  0.56984478  0.20840092  0.87598473  1
  N  N47  1  0.46150381  0.09002081  0.60921946  1
  N  N48  1  0.24191040  0.51191787  0.31373375  1
  N  N49  1  0.10690049  0.42712798  0.11576796  1
  N  N50  1  0.88600583  0.54005314  0.84176781  1
  N  N51  1  0.76039040  0.42227736  0.56301180  1
  N  N52  1  0.56587775  0.51457897  0.30957891  1
  N  N53  1  0.44417141  0.42981178  0.06913495  1
  N  N54  1  0.23056284  0.53800460  0.82891575  1
  N  N55  1  0.11895121  0.43639548  0.62942980  1
  N  N56  1  0.88867552  0.53766840  0.34892158  1
  N  N57  1  0.77478059  0.43166101  0.07301032  1
  N  N58  1  0.56989140  0.51039172  0.81784887  1
  N  N59  1  0.43854586  0.43846655  0.57043313  1
  N  N60  1  0.22281442  0.87163015  0.37751558  1
  N  N61  1  0.10814580  0.76178084  0.11423405  1
  N  N62  1  0.88807511  0.87441922  0.87549204  1
  N  N63  1  0.76890819  0.78615904  0.63205480  1
  N  N64  1  0.57614661  0.86274748  0.38007825  1
  N  N65  1  0.44484936  0.76019287  0.09940914  1
  N  N66  1  0.21342777  0.85973154  0.86872260  1
  N  N67  1  0.09277997  0.76054934  0.62384572  1
  N  N68  1  0.86698182  0.88427796  0.38009258  1
  N  N69  1  0.77903774  0.76423358  0.12682887  1
  N  N70  1  0.58179908  0.86344333  0.88422101  1
  N  N71  1  0.46896921  0.75392066  0.62111749  1
