# generated using pymatgen
data_Sc5Al13N18
_symmetry_space_group_name_H-M   'P 1'
_cell_length_a   9.88721560
_cell_length_b   9.83413812
_cell_length_c   10.22602671
_cell_angle_alpha   89.60298169
_cell_angle_beta   90.04598851
_cell_angle_gamma   60.13232920
_symmetry_Int_Tables_number   1
_chemical_formula_structural   Sc5Al13N18
_chemical_formula_sum   'Sc10 Al26 N36'
_cell_volume   862.20348302
_cell_formula_units_Z   2
loop_
 _symmetry_equiv_pos_site_id
 _symmetry_equiv_pos_as_xyz
  1  'x, y, z'
loop_
 _atom_site_type_symbol
 _atom_site_label
 _atom_site_symmetry_multiplicity
 _atom_site_fract_x
 _atom_site_fract_y
 _atom_site_fract_z
 _atom_site_occupancy
  Sc  Sc0  1  0.09851672  0.10137662  0.31710343  1
  Sc  Sc1  1  0.44883755  0.09731395  0.32736987  1
  Sc  Sc2  1  0.09872238  0.10345710  0.83943819  1
  Sc  Sc3  1  0.21880850  0.21329136  0.57715337  1
  Sc  Sc4  1  0.45373502  0.09668599  0.82760360  1
  Sc  Sc5  1  0.88356698  0.54412795  0.57751290  1
  Sc  Sc6  1  0.10409958  0.75240449  0.36259077  1
  Sc  Sc7  1  0.45099407  0.75557036  0.32212972  1
  Sc  Sc8  1  0.22045796  0.86881044  0.59168347  1
  Sc  Sc9  1  0.45778492  0.75354295  0.84080657  1
  Al  Al10  1  0.22206273  0.21223716  0.06670062  1
  Al  Al11  1  0.77858951  0.09491208  0.82195005  1
  Al  Al12  1  0.87501757  0.20878474  0.57255484  1
  Al  Al13  1  0.56320415  0.20113797  0.07074195  1
  Al  Al14  1  0.76990194  0.10243739  0.32322933  1
  Al  Al15  1  0.87958675  0.20901042  0.06933472  1
  Al  Al16  1  0.56468206  0.20164632  0.57240111  1
  Al  Al17  1  0.10398072  0.42714178  0.31038522  1
  Al  Al18  1  0.23203347  0.53053172  0.13583462  1
  Al  Al19  1  0.77537483  0.42335707  0.82609350  1
  Al  Al20  1  0.44312589  0.42772729  0.38791190  1
  Al  Al21  1  0.56281160  0.53208551  0.08074176  1
  Al  Al22  1  0.10592579  0.43622876  0.82911424  1
  Al  Al23  1  0.22400722  0.54499589  0.64561254  1
  Al  Al24  1  0.77670064  0.42572427  0.31669386  1
  Al  Al25  1  0.88865124  0.53925420  0.06914527  1
  Al  Al26  1  0.44346196  0.42941150  0.89252533  1
  Al  Al27  1  0.55872874  0.53318850  0.59032533  1
  Al  Al28  1  0.22451951  0.87113184  0.06722730  1
  Al  Al29  1  0.78651126  0.76297045  0.82518431  1
  Al  Al30  1  0.87602003  0.88009125  0.57056500  1
  Al  Al31  1  0.56513764  0.87134581  0.07052985  1
  Al  Al32  1  0.10913954  0.75175246  0.89477441  1
  Al  Al33  1  0.77903453  0.76045993  0.31833084  1
  Al  Al34  1  0.88189619  0.87664760  0.07679655  1
  Al  Al35  1  0.56808402  0.86827006  0.57247565  1
  N  N36  1  0.20965558  0.22271158  0.37160700  1
  N  N37  1  0.10938660  0.09502681  0.10193150  1
  N  N38  1  0.86571155  0.21464220  0.88681543  1
  N  N39  1  0.77708938  0.09367974  0.63353792  1
  N  N40  1  0.56661181  0.21062876  0.38527865  1
  N  N41  1  0.44654767  0.09468336  0.11302975  1
  N  N42  1  0.21728971  0.22641499  0.88157456  1
  N  N43  1  0.08495144  0.10943391  0.62974191  1
  N  N44  1  0.86749543  0.21641411  0.38389120  1
  N  N45  1  0.77773319  0.09485109  0.13362567  1
  N  N46  1  0.57138432  0.20941725  0.88267601  1
  N  N47  1  0.46202671  0.08640475  0.61574337  1
  N  N48  1  0.23919513  0.51230941  0.32194810  1
  N  N49  1  0.10602645  0.42829989  0.11999586  1
  N  N50  1  0.88729607  0.54033610  0.87756284  1
  N  N51  1  0.76825507  0.41705605  0.63859293  1
  N  N52  1  0.56533247  0.52018986  0.35949168  1
  N  N53  1  0.44249213  0.42632968  0.08381329  1
  N  N54  1  0.22757804  0.54260449  0.83901496  1
  N  N55  1  0.11158447  0.43926604  0.64322130  1
  N  N56  1  0.88964631  0.53884065  0.36556845  1
  N  N57  1  0.78318499  0.42494589  0.12739692  1
  N  N58  1  0.57027288  0.52034576  0.88587418  1
  N  N59  1  0.43650559  0.43356712  0.58532339  1
  N  N60  1  0.22260515  0.87448115  0.38226661  1
  N  N61  1  0.11189287  0.75642284  0.09746672  1
  N  N62  1  0.88759885  0.87537335  0.88639357  1
  N  N63  1  0.77260054  0.77900626  0.64001270  1
  N  N64  1  0.57736987  0.85931533  0.38623304  1
  N  N65  1  0.44704245  0.76205012  0.10599082  1
  N  N66  1  0.21640264  0.86107360  0.87591932  1
  N  N67  1  0.09663579  0.74876135  0.58089612  1
  N  N68  1  0.85944212  0.88963056  0.37935510  1
  N  N69  1  0.78062727  0.75970094  0.13025463  1
  N  N70  1  0.58338949  0.86440216  0.88922999  1
  N  N71  1  0.46964123  0.74908384  0.62666871  1
