# generated using pymatgen
data_Sc5Al13N18
_symmetry_space_group_name_H-M   'P 1'
_cell_length_a   9.90946221
_cell_length_b   9.90630412
_cell_length_c   10.04006742
_cell_angle_alpha   89.73151385
_cell_angle_beta   89.75286049
_cell_angle_gamma   60.07556399
_symmetry_Int_Tables_number   1
_chemical_formula_structural   Sc5Al13N18
_chemical_formula_sum   'Sc10 Al26 N36'
_cell_volume   854.18765278
_cell_formula_units_Z   2
loop_
 _symmetry_equiv_pos_site_id
 _symmetry_equiv_pos_as_xyz
  1  'x, y, z'
loop_
 _atom_site_type_symbol
 _atom_site_label
 _atom_site_symmetry_multiplicity
 _atom_site_fract_x
 _atom_site_fract_y
 _atom_site_fract_z
 _atom_site_occupancy
  Sc  Sc0  1  0.09574140  0.10380221  0.36694660  1
  Sc  Sc1  1  0.45169505  0.09651412  0.35753160  1
  Sc  Sc2  1  0.10104903  0.09942815  0.88108970  1
  Sc  Sc3  1  0.22165710  0.21255886  0.62102664  1
  Sc  Sc4  1  0.44728046  0.10377964  0.87685403  1
  Sc  Sc5  1  0.88286457  0.54229357  0.61201988  1
  Sc  Sc6  1  0.10276521  0.75269294  0.36193921  1
  Sc  Sc7  1  0.45791398  0.74579392  0.36757222  1
  Sc  Sc8  1  0.21828939  0.86779845  0.62282938  1
  Sc  Sc9  1  0.45119072  0.75128515  0.86716415  1
  Al  Al10  1  0.21805339  0.21240767  0.13499217  1
  Al  Al11  1  0.77530858  0.09971933  0.88227381  1
  Al  Al12  1  0.87364596  0.21000848  0.63246234  1
  Al  Al13  1  0.55990151  0.21232955  0.13337373  1
  Al  Al14  1  0.77142824  0.10095727  0.37855179  1
  Al  Al15  1  0.87834083  0.21029151  0.13123169  1
  Al  Al16  1  0.56033550  0.20871687  0.62957218  1
  Al  Al17  1  0.11343321  0.43238102  0.37589119  1
  Al  Al18  1  0.22992107  0.52892748  0.12680321  1
  Al  Al19  1  0.77804197  0.42692718  0.88158336  1
  Al  Al20  1  0.44749542  0.42377583  0.38110621  1
  Al  Al21  1  0.55916664  0.52972759  0.12902396  1
  Al  Al22  1  0.10416291  0.43707470  0.88447181  1
  Al  Al23  1  0.22111726  0.54152762  0.63407551  1
  Al  Al24  1  0.77197476  0.42163619  0.37778154  1
  Al  Al25  1  0.89184266  0.53077700  0.12971271  1
  Al  Al26  1  0.44815086  0.42559529  0.87807848  1
  Al  Al27  1  0.55961197  0.52749698  0.63263030  1
  Al  Al28  1  0.22539799  0.86864035  0.13415788  1
  Al  Al29  1  0.78349464  0.76323950  0.82776015  1
  Al  Al30  1  0.88545936  0.88178943  0.62337321  1
  Al  Al31  1  0.56602645  0.86458636  0.07627553  1
  Al  Al32  1  0.10952595  0.75576505  0.89041947  1
  Al  Al33  1  0.78078905  0.76114274  0.31190185  1
  Al  Al34  1  0.88446617  0.87859300  0.11343281  1
  Al  Al35  1  0.57009559  0.87119683  0.57168734  1
  N  N36  1  0.21063798  0.22509755  0.32508794  1
  N  N37  1  0.10782138  0.09584453  0.09852215  1
  N  N38  1  0.86845308  0.21655182  0.82294725  1
  N  N39  1  0.77582822  0.09623490  0.57211644  1
  N  N40  1  0.56530711  0.21869312  0.32117455  1
  N  N41  1  0.44629146  0.09583070  0.10339539  1
  N  N42  1  0.21046648  0.22695356  0.83146097  1
  N  N43  1  0.08622032  0.10707218  0.58280873  1
  N  N44  1  0.86358780  0.21658961  0.31681219  1
  N  N45  1  0.77353233  0.10064690  0.07216161  1
  N  N46  1  0.56672681  0.21597385  0.81908087  1
  N  N47  1  0.46208737  0.09124170  0.58589259  1
  N  N48  1  0.23961213  0.51385908  0.31397816  1
  N  N49  1  0.10961097  0.42932528  0.07631237  1
  N  N50  1  0.88914091  0.53678466  0.83273159  1
  N  N51  1  0.76474513  0.41670742  0.56665842  1
  N  N52  1  0.56534172  0.51426394  0.31658804  1
  N  N53  1  0.44627765  0.42576993  0.06856785  1
  N  N54  1  0.22240010  0.53899806  0.82900829  1
  N  N55  1  0.11818548  0.44358260  0.56329255  1
  N  N56  1  0.89094105  0.53325058  0.33167715  1
  N  N57  1  0.77860317  0.42698073  0.07375021  1
  N  N58  1  0.56804796  0.51625802  0.82248090  1
  N  N59  1  0.44000802  0.43189490  0.57469450  1
  N  N60  1  0.22358666  0.86841467  0.32588091  1
  N  N61  1  0.11437971  0.75570155  0.08708168  1
  N  N62  1  0.89213730  0.87562207  0.85203187  1
  N  N63  1  0.76991666  0.78365552  0.63509632  1
  N  N64  1  0.58479651  0.85632368  0.37980640  1
  N  N65  1  0.44797977  0.75563864  0.09627408  1
  N  N66  1  0.21156725  0.86239431  0.83369063  1
  N  N67  1  0.09601221  0.75321550  0.57605117  1
  N  N68  1  0.86735021  0.89245997  0.31647219  1
  N  N69  1  0.78108570  0.75500622  0.11950090  1
  N  N70  1  0.57882787  0.86392707  0.88631027  1
  N  N71  1  0.46717514  0.74889720  0.59695767  1
