# generated using pymatgen
data_Sc5Al13N18
_symmetry_space_group_name_H-M   'P 1'
_cell_length_a   9.88206584
_cell_length_b   9.83683390
_cell_length_c   10.27072501
_cell_angle_alpha   89.44657224
_cell_angle_beta   90.04177499
_cell_angle_gamma   59.98121182
_symmetry_Int_Tables_number   1
_chemical_formula_structural   Sc5Al13N18
_chemical_formula_sum   'Sc10 Al26 N36'
_cell_volume   864.41708595
_cell_formula_units_Z   2
loop_
 _symmetry_equiv_pos_site_id
 _symmetry_equiv_pos_as_xyz
  1  'x, y, z'
loop_
 _atom_site_type_symbol
 _atom_site_label
 _atom_site_symmetry_multiplicity
 _atom_site_fract_x
 _atom_site_fract_y
 _atom_site_fract_z
 _atom_site_occupancy
  Sc  Sc0  1  0.10020355  0.09714519  0.31876695  1
  Sc  Sc1  1  0.45410171  0.09581644  0.33314259  1
  Sc  Sc2  1  0.09757328  0.10460789  0.83376021  1
  Sc  Sc3  1  0.21967198  0.21271904  0.59147206  1
  Sc  Sc4  1  0.45735295  0.09292436  0.81981923  1
  Sc  Sc5  1  0.88361817  0.54025480  0.62367966  1
  Sc  Sc6  1  0.10308751  0.75786582  0.33137595  1
  Sc  Sc7  1  0.44974785  0.75801905  0.32168351  1
  Sc  Sc8  1  0.22361203  0.86815682  0.58862791  1
  Sc  Sc9  1  0.45610355  0.75216581  0.84446372  1
  Al  Al10  1  0.22419213  0.20775809  0.10354265  1
  Al  Al11  1  0.77597315  0.09904061  0.81978154  1
  Al  Al12  1  0.87476720  0.20413153  0.56396433  1
  Al  Al13  1  0.56251524  0.20114163  0.06656285  1
  Al  Al14  1  0.77159094  0.09863156  0.31800617  1
  Al  Al15  1  0.88219297  0.20305195  0.06899810  1
  Al  Al16  1  0.56461581  0.20622208  0.56692290  1
  Al  Al17  1  0.11063181  0.43560642  0.37822682  1
  Al  Al18  1  0.22962000  0.52995407  0.12964391  1
  Al  Al19  1  0.77505144  0.43248063  0.88998906  1
  Al  Al20  1  0.44479105  0.43199380  0.38429829  1
  Al  Al21  1  0.56056620  0.52606458  0.12883860  1
  Al  Al22  1  0.10792787  0.43584582  0.88541498  1
  Al  Al23  1  0.22401281  0.53732070  0.63783773  1
  Al  Al24  1  0.76958474  0.42927508  0.38015915  1
  Al  Al25  1  0.89131990  0.53439966  0.13561270  1
  Al  Al26  1  0.44380308  0.42979306  0.88468216  1
  Al  Al27  1  0.55985436  0.52809375  0.63766277  1
  Al  Al28  1  0.21956135  0.86453705  0.06057085  1
  Al  Al29  1  0.78386317  0.76555454  0.82466217  1
  Al  Al30  1  0.87654991  0.88218761  0.57384138  1
  Al  Al31  1  0.56583464  0.86933075  0.07063209  1
  Al  Al32  1  0.09995699  0.76121885  0.82123556  1
  Al  Al33  1  0.78021623  0.76342677  0.32007517  1
  Al  Al34  1  0.88944019  0.87165102  0.06799550  1
  Al  Al35  1  0.56867408  0.86690946  0.57047815  1
  N  N36  1  0.21299899  0.21950584  0.35403209  1
  N  N37  1  0.11125957  0.09387797  0.10174361  1
  N  N38  1  0.86676858  0.21202034  0.88566257  1
  N  N39  1  0.77365527  0.09889369  0.63265084  1
  N  N40  1  0.56928425  0.21371842  0.38149607  1
  N  N41  1  0.44733292  0.09436587  0.11522805  1
  N  N42  1  0.21686414  0.22794066  0.83111146  1
  N  N43  1  0.08133133  0.10949102  0.62247835  1
  N  N44  1  0.87092062  0.20700529  0.37458372  1
  N  N45  1  0.77778464  0.09183004  0.12991502  1
  N  N46  1  0.56977493  0.20794684  0.88128562  1
  N  N47  1  0.46525230  0.08775754  0.60551817  1
  N  N48  1  0.24014960  0.51177296  0.31490163  1
  N  N49  1  0.10987485  0.43011672  0.07589722  1
  N  N50  1  0.88984119  0.53671286  0.83659584  1
  N  N51  1  0.75970402  0.42650345  0.56680621  1
  N  N52  1  0.56504227  0.51545852  0.31387140  1
  N  N53  1  0.44233145  0.43132916  0.07272381  1
  N  N54  1  0.22566822  0.53370201  0.82834677  1
  N  N55  1  0.11319955  0.45274978  0.56114534  1
  N  N56  1  0.89154426  0.53253022  0.32851016  1
  N  N57  1  0.77691166  0.43318671  0.08014121  1
  N  N58  1  0.57045985  0.50975262  0.82423297  1
  N  N59  1  0.43606597  0.44062879  0.57610794  1
  N  N60  1  0.22343933  0.86739377  0.38452237  1
  N  N61  1  0.10815597  0.76186577  0.11886107  1
  N  N62  1  0.88839326  0.87509400  0.88099973  1
  N  N63  1  0.76949972  0.78494570  0.63891556  1
  N  N64  1  0.58002217  0.85483045  0.38573809  1
  N  N65  1  0.44486006  0.76035895  0.10311997  1
  N  N66  1  0.21286212  0.85881539  0.87352170  1
  N  N67  1  0.09048578  0.76130298  0.63012584  1
  N  N68  1  0.86549913  0.88568550  0.38562392  1
  N  N69  1  0.78085277  0.76502432  0.13159587  1
  N  N70  1  0.58311622  0.86153387  0.89088766  1
  N  N71  1  0.46831292  0.75450859  0.62861454  1
