# generated using pymatgen
data_Sc5Al13N18
_symmetry_space_group_name_H-M   'P 1'
_cell_length_a   9.87179218
_cell_length_b   9.82529889
_cell_length_c   10.36613713
_cell_angle_alpha   89.13530306
_cell_angle_beta   89.82032411
_cell_angle_gamma   59.86322204
_symmetry_Int_Tables_number   1
_chemical_formula_structural   Sc5Al13N18
_chemical_formula_sum   'Sc10 Al26 N36'
_cell_volume   869.42864375
_cell_formula_units_Z   2
loop_
 _symmetry_equiv_pos_site_id
 _symmetry_equiv_pos_as_xyz
  1  'x, y, z'
loop_
 _atom_site_type_symbol
 _atom_site_label
 _atom_site_symmetry_multiplicity
 _atom_site_fract_x
 _atom_site_fract_y
 _atom_site_fract_z
 _atom_site_occupancy
  Sc  Sc0  1  0.10248050  0.09799186  0.30352035  1
  Sc  Sc1  1  0.45227415  0.09866888  0.31619933  1
  Sc  Sc2  1  0.09691890  0.10564301  0.82893684  1
  Sc  Sc3  1  0.21954137  0.21256672  0.56401410  1
  Sc  Sc4  1  0.45252078  0.09740213  0.81713011  1
  Sc  Sc5  1  0.87991773  0.54178176  0.61411487  1
  Sc  Sc6  1  0.10516316  0.75703863  0.32591166  1
  Sc  Sc7  1  0.45130608  0.75839079  0.31651913  1
  Sc  Sc8  1  0.22373502  0.87128041  0.58055282  1
  Sc  Sc9  1  0.45603862  0.75320656  0.83540759  1
  Al  Al10  1  0.22169662  0.21057696  0.05799571  1
  Al  Al11  1  0.77581071  0.09877057  0.81287827  1
  Al  Al12  1  0.87836138  0.20178786  0.55861325  1
  Al  Al13  1  0.56355361  0.19952677  0.05939264  1
  Al  Al14  1  0.77298379  0.09735982  0.31338023  1
  Al  Al15  1  0.88213015  0.20117865  0.06152165  1
  Al  Al16  1  0.56464279  0.20347076  0.56235999  1
  Al  Al17  1  0.11237866  0.42300291  0.30558152  1
  Al  Al18  1  0.23121855  0.53213090  0.12287104  1
  Al  Al19  1  0.77385656  0.43286469  0.88489963  1
  Al  Al20  1  0.44623791  0.43011811  0.38103220  1
  Al  Al21  1  0.55996357  0.52599741  0.12531436  1
  Al  Al22  1  0.10784265  0.43675739  0.82774404  1
  Al  Al23  1  0.23047252  0.53849190  0.63715808  1
  Al  Al24  1  0.76989028  0.42688308  0.37580462  1
  Al  Al25  1  0.88297990  0.53849966  0.12641370  1
  Al  Al26  1  0.44576382  0.43091191  0.88202164  1
  Al  Al27  1  0.56090053  0.52679925  0.63197972  1
  Al  Al28  1  0.21959263  0.86503546  0.05449624  1
  Al  Al29  1  0.78245334  0.76730246  0.81727540  1
  Al  Al30  1  0.87836574  0.88122056  0.56776195  1
  Al  Al31  1  0.56371007  0.87082087  0.06298414  1
  Al  Al32  1  0.10048565  0.76361380  0.81648070  1
  Al  Al33  1  0.77890110  0.76454459  0.31488155  1
  Al  Al34  1  0.88940357  0.87110615  0.06221099  1
  Al  Al35  1  0.56684082  0.87129272  0.56518387  1
  N  N36  1  0.21393515  0.21723404  0.36115007  1
  N  N37  1  0.10976123  0.09257706  0.09307736  1
  N  N38  1  0.86582636  0.21159714  0.87971102  1
  N  N39  1  0.77534887  0.09749907  0.62693729  1
  N  N40  1  0.56983938  0.21035878  0.37817518  1
  N  N41  1  0.44580853  0.09515318  0.10574393  1
  N  N42  1  0.21674730  0.22574618  0.87555740  1
  N  N43  1  0.08404686  0.11186704  0.62256842  1
  N  N44  1  0.87548153  0.20307972  0.36998062  1
  N  N45  1  0.77752335  0.09112287  0.12548418  1
  N  N46  1  0.56985928  0.20823940  0.87556507  1
  N  N47  1  0.46142130  0.09008214  0.60847371  1
  N  N48  1  0.24292877  0.51120687  0.31214936  1
  N  N49  1  0.10804049  0.42767732  0.11116622  1
  N  N50  1  0.88479557  0.53919519  0.83237892  1
  N  N51  1  0.75979019  0.42373742  0.56011827  1
  N  N52  1  0.56539708  0.51436524  0.30892173  1
  N  N53  1  0.44429374  0.43012526  0.06786557  1
  N  N54  1  0.23001828  0.53802195  0.82890002  1
  N  N55  1  0.11816866  0.43843078  0.62215641  1
  N  N56  1  0.88686259  0.53370828  0.32504039  1
  N  N57  1  0.77468389  0.43255188  0.07321866  1
  N  N58  1  0.57061326  0.51034989  0.81723642  1
  N  N59  1  0.43796107  0.43916831  0.57045452  1
  N  N60  1  0.22320177  0.87038351  0.37774785  1
  N  N61  1  0.10820390  0.76217644  0.11413313  1
  N  N62  1  0.88830502  0.87499853  0.87586510  1
  N  N63  1  0.76898870  0.78677729  0.63287884  1
  N  N64  1  0.57729102  0.86075602  0.38100357  1
  N  N65  1  0.44485503  0.76044998  0.09922076  1
  N  N66  1  0.21328618  0.86026647  0.86875579  1
  N  N67  1  0.09296848  0.76171993  0.62515441  1
  N  N68  1  0.86769092  0.88323376  0.38063967  1
  N  N69  1  0.77763759  0.76723355  0.12665908  1
  N  N70  1  0.58118034  0.86408064  0.88409850  1
  N  N71  1  0.46881799  0.75442090  0.62170673  1
