# generated using pymatgen
data_Sc5Al13N18
_symmetry_space_group_name_H-M   'P 1'
_cell_length_a   9.83972927
_cell_length_b   9.82019478
_cell_length_c   10.14876642
_cell_angle_alpha   89.91711049
_cell_angle_beta   89.91951445
_cell_angle_gamma   60.08207523
_symmetry_Int_Tables_number   1
_chemical_formula_structural   Sc5Al13N18
_chemical_formula_sum   'Sc10 Al26 N36'
_cell_volume   849.97301533
_cell_formula_units_Z   2
loop_
 _symmetry_equiv_pos_site_id
 _symmetry_equiv_pos_as_xyz
  1  'x, y, z'
loop_
 _atom_site_type_symbol
 _atom_site_label
 _atom_site_symmetry_multiplicity
 _atom_site_fract_x
 _atom_site_fract_y
 _atom_site_fract_z
 _atom_site_occupancy
  Sc  Sc0  1  0.09794355  0.10265490  0.39271343  1
  Sc  Sc1  1  0.45342179  0.09382250  0.39542822  1
  Sc  Sc2  1  0.10061140  0.10139986  0.91266633  1
  Sc  Sc3  1  0.22221157  0.21264190  0.65086734  1
  Sc  Sc4  1  0.45101999  0.09760290  0.90827135  1
  Sc  Sc5  1  0.88372842  0.54224343  0.64878287  1
  Sc  Sc6  1  0.10312142  0.75317133  0.39790758  1
  Sc  Sc7  1  0.45799677  0.74874716  0.40380678  1
  Sc  Sc8  1  0.21923239  0.86921331  0.65525920  1
  Sc  Sc9  1  0.45312485  0.75298323  0.90209203  1
  Al  Al10  1  0.21950397  0.21319334  0.16303685  1
  Al  Al11  1  0.77565125  0.09790352  0.90612150  1
  Al  Al12  1  0.87481881  0.20906553  0.65824370  1
  Al  Al13  1  0.55964268  0.21053491  0.16018533  1
  Al  Al14  1  0.77205882  0.09935012  0.40808438  1
  Al  Al15  1  0.87786302  0.21023633  0.15888112  1
  Al  Al16  1  0.56134018  0.20774398  0.65770307  1
  Al  Al17  1  0.11203419  0.43378713  0.40256487  1
  Al  Al18  1  0.22741433  0.53278278  0.15451198  1
  Al  Al19  1  0.77701892  0.42661056  0.91038504  1
  Al  Al20  1  0.44785802  0.42397061  0.40715508  1
  Al  Al21  1  0.55814285  0.53202252  0.15769164  1
  Al  Al22  1  0.10701614  0.43585405  0.91451322  1
  Al  Al23  1  0.22281494  0.54021248  0.66188307  1
  Al  Al24  1  0.77254513  0.42346883  0.40439035  1
  Al  Al25  1  0.88810129  0.53979002  0.15915672  1
  Al  Al26  1  0.44746960  0.42611372  0.90651653  1
  Al  Al27  1  0.55999992  0.52787467  0.66001568  1
  Al  Al28  1  0.22387799  0.86793980  0.15969720  1
  Al  Al29  1  0.78723786  0.75726382  0.91174088  1
  Al  Al30  1  0.88418868  0.87655016  0.66091946  1
  Al  Al31  1  0.56363141  0.86651394  0.15903557  1
  Al  Al32  1  0.10657614  0.75762916  0.91336198  1
  Al  Al33  1  0.78016131  0.76430783  0.40497022  1
  Al  Al34  1  0.88182367  0.87754704  0.15471397  1
  Al  Al35  1  0.56928885  0.87120630  0.66060000  1
  N  N36  1  0.21357217  0.22499847  0.35064976  1
  N  N37  1  0.10740794  0.09701909  0.12652510  1
  N  N38  1  0.86905849  0.21622696  0.84767412  1
  N  N39  1  0.77707825  0.09354883  0.59960079  1
  N  N40  1  0.56562302  0.21677942  0.34649720  1
  N  N41  1  0.44617494  0.09541659  0.12342926  1
  N  N42  1  0.21331909  0.22553206  0.85886748  1
  N  N43  1  0.08747965  0.10733913  0.60627785  1
  N  N44  1  0.86350257  0.21593023  0.34310201  1
  N  N45  1  0.77578898  0.09613349  0.09549403  1
  N  N46  1  0.56506230  0.21568096  0.84553360  1
  N  N47  1  0.46418216  0.08698732  0.61095259  1
  N  N48  1  0.23817293  0.51710460  0.34034624  1
  N  N49  1  0.10875544  0.43100700  0.10390578  1
  N  N50  1  0.88967429  0.53828759  0.86161033  1
  N  N51  1  0.76619659  0.41767776  0.59223584  1
  N  N52  1  0.56407903  0.51746401  0.34336303  1
  N  N53  1  0.44566172  0.42675064  0.09571469  1
  N  N54  1  0.22271288  0.53863533  0.85497375  1
  N  N55  1  0.11740203  0.44359355  0.58870518  1
  N  N56  1  0.88825329  0.53970092  0.35422552  1
  N  N57  1  0.77785448  0.42861812  0.10076104  1
  N  N58  1  0.56699131  0.51789681  0.84805697  1
  N  N59  1  0.44120744  0.43040680  0.60007992  1
  N  N60  1  0.22480842  0.86541311  0.34868644  1
  N  N61  1  0.10841046  0.75915772  0.10781380  1
  N  N62  1  0.88893543  0.87355541  0.85411886  1
  N  N63  1  0.77417870  0.77927896  0.59282077  1
  N  N64  1  0.57786372  0.85805054  0.34207905  1
  N  N65  1  0.44767759  0.75778157  0.11629696  1
  N  N66  1  0.21245727  0.86398342  0.86271809  1
  N  N67  1  0.09846135  0.75322159  0.60750193  1
  N  N68  1  0.86607485  0.88845441  0.34161297  1
  N  N69  1  0.78093452  0.75932238  0.10036436  1
  N  N70  1  0.58123238  0.86287607  0.84795212  1
  N  N71  1  0.46790369  0.74988156  0.61943084  1
