# generated using pymatgen
data_Sc5Al13N18
_symmetry_space_group_name_H-M   'P 1'
_cell_length_a   9.90454515
_cell_length_b   9.89776171
_cell_length_c   10.10704784
_cell_angle_alpha   89.64469756
_cell_angle_beta   89.85917022
_cell_angle_gamma   60.15071348
_symmetry_Int_Tables_number   1
_chemical_formula_structural   Sc5Al13N18
_chemical_formula_sum   'Sc10 Al26 N36'
_cell_volume   859.36087124
_cell_formula_units_Z   2
loop_
 _symmetry_equiv_pos_site_id
 _symmetry_equiv_pos_as_xyz
  1  'x, y, z'
loop_
 _atom_site_type_symbol
 _atom_site_label
 _atom_site_symmetry_multiplicity
 _atom_site_fract_x
 _atom_site_fract_y
 _atom_site_fract_z
 _atom_site_occupancy
  Sc  Sc0  1  0.09656801  0.10416665  0.36920231  1
  Sc  Sc1  1  0.45103047  0.09621152  0.36029209  1
  Sc  Sc2  1  0.10235327  0.09983619  0.88340335  1
  Sc  Sc3  1  0.22350270  0.21179839  0.62365973  1
  Sc  Sc4  1  0.44690968  0.10244606  0.88059228  1
  Sc  Sc5  1  0.88515641  0.54098449  0.61335887  1
  Sc  Sc6  1  0.10493444  0.75116607  0.35865571  1
  Sc  Sc7  1  0.45430782  0.74524413  0.37084167  1
  Sc  Sc8  1  0.21465254  0.86836098  0.62545978  1
  Sc  Sc9  1  0.45215016  0.75137860  0.86820087  1
  Al  Al10  1  0.21776355  0.21302268  0.13573811  1
  Al  Al11  1  0.77967933  0.09212027  0.82908385  1
  Al  Al12  1  0.87662563  0.21242895  0.63440902  1
  Al  Al13  1  0.55499518  0.21372158  0.13006857  1
  Al  Al14  1  0.77277344  0.09771349  0.32189021  1
  Al  Al15  1  0.88144452  0.21193390  0.12850063  1
  Al  Al16  1  0.55820328  0.20936915  0.63219724  1
  Al  Al17  1  0.11429458  0.43161610  0.37711639  1
  Al  Al18  1  0.22979714  0.52947505  0.12800914  1
  Al  Al19  1  0.77803679  0.42951755  0.88390864  1
  Al  Al20  1  0.44815404  0.42302631  0.38229107  1
  Al  Al21  1  0.55893709  0.53094537  0.13069473  1
  Al  Al22  1  0.10418459  0.43770252  0.88526973  1
  Al  Al23  1  0.22171618  0.54168045  0.63321368  1
  Al  Al24  1  0.77175398  0.42256414  0.37934531  1
  Al  Al25  1  0.89225926  0.53333779  0.13356774  1
  Al  Al26  1  0.44774670  0.42679428  0.88003247  1
  Al  Al27  1  0.55969988  0.52720431  0.63382431  1
  Al  Al28  1  0.22493686  0.86950039  0.13347281  1
  Al  Al29  1  0.78476436  0.76490687  0.82141668  1
  Al  Al30  1  0.87597871  0.88305058  0.56592922  1
  Al  Al31  1  0.56736191  0.86402356  0.07830954  1
  Al  Al32  1  0.11373055  0.75245334  0.88924436  1
  Al  Al33  1  0.77976661  0.76239502  0.31707675  1
  Al  Al34  1  0.88242067  0.87581103  0.06869825  1
  Al  Al35  1  0.56952019  0.86956188  0.57128956  1
  N  N36  1  0.21080922  0.22539196  0.32401127  1
  N  N37  1  0.10873719  0.09666917  0.09759604  1
  N  N38  1  0.87115960  0.22016508  0.82767736  1
  N  N39  1  0.77929631  0.09208903  0.62047378  1
  N  N40  1  0.56032338  0.22090059  0.31930874  1
  N  N41  1  0.44474930  0.09562981  0.10267156  1
  N  N42  1  0.21097867  0.22766634  0.83228268  1
  N  N43  1  0.08722575  0.10817464  0.58261796  1
  N  N44  1  0.86638003  0.21952872  0.31609137  1
  N  N45  1  0.77721125  0.09309616  0.10650641  1
  N  N46  1  0.56045436  0.21876981  0.82399034  1
  N  N47  1  0.46318805  0.09000777  0.58457371  1
  N  N48  1  0.24029726  0.51309875  0.31417083  1
  N  N49  1  0.10899498  0.43068535  0.07647256  1
  N  N50  1  0.88968396  0.53823217  0.83199334  1
  N  N51  1  0.76464617  0.41771401  0.56694285  1
  N  N52  1  0.56540321  0.51421248  0.31717922  1
  N  N53  1  0.44548831  0.42778803  0.06893100  1
  N  N54  1  0.22292972  0.53892702  0.82820564  1
  N  N55  1  0.11997813  0.44166548  0.56320112  1
  N  N56  1  0.89138842  0.53371188  0.33307779  1
  N  N57  1  0.77803201  0.43055967  0.07480001  1
  N  N58  1  0.56837975  0.51659358  0.82264475  1
  N  N59  1  0.44125667  0.43045264  0.57486271  1
  N  N60  1  0.22138734  0.87035395  0.32293353  1
  N  N61  1  0.11442144  0.75533146  0.08863544  1
  N  N62  1  0.89018672  0.87217095  0.87869440  1
  N  N63  1  0.77128961  0.78398115  0.63352225  1
  N  N64  1  0.58101533  0.85501853  0.37947267  1
  N  N65  1  0.44786305  0.75604564  0.09548267  1
  N  N66  1  0.21120537  0.86281077  0.83485439  1
  N  N67  1  0.09921341  0.75041147  0.57331210  1
  N  N68  1  0.86040325  0.88987956  0.37368851  1
  N  N69  1  0.78267774  0.76078391  0.12825929  1
  N  N70  1  0.58298658  0.86153393  0.88859017  1
  N  N71  1  0.46457068  0.74931936  0.59780501  1
