# generated using pymatgen
data_Sc5Al13N18
_symmetry_space_group_name_H-M   'P 1'
_cell_length_a   9.83845367
_cell_length_b   9.82303733
_cell_length_c   10.14467264
_cell_angle_alpha   90.08784603
_cell_angle_beta   90.06115124
_cell_angle_gamma   60.04767431
_symmetry_Int_Tables_number   1
_chemical_formula_structural   Sc5Al13N18
_chemical_formula_sum   'Sc10 Al26 N36'
_cell_volume   849.47226763
_cell_formula_units_Z   2
loop_
 _symmetry_equiv_pos_site_id
 _symmetry_equiv_pos_as_xyz
  1  'x, y, z'
loop_
 _atom_site_type_symbol
 _atom_site_label
 _atom_site_symmetry_multiplicity
 _atom_site_fract_x
 _atom_site_fract_y
 _atom_site_fract_z
 _atom_site_occupancy
  Sc  Sc0  1  0.10061737  0.09990186  0.29915454  1
  Sc  Sc1  1  0.45036122  0.09581709  0.31212129  1
  Sc  Sc2  1  0.09856002  0.10349169  0.82679536  1
  Sc  Sc3  1  0.21894842  0.21229215  0.56241950  1
  Sc  Sc4  1  0.45390521  0.09561950  0.81389712  1
  Sc  Sc5  1  0.88292484  0.54268653  0.56552295  1
  Sc  Sc6  1  0.10595550  0.75590316  0.31380617  1
  Sc  Sc7  1  0.45257892  0.75218857  0.30832642  1
  Sc  Sc8  1  0.22184710  0.86961503  0.57517210  1
  Sc  Sc9  1  0.45885735  0.74964066  0.81894822  1
  Al  Al10  1  0.22232892  0.21332229  0.05271791  1
  Al  Al11  1  0.77557798  0.09735114  0.80745144  1
  Al  Al12  1  0.87533960  0.20839013  0.55788654  1
  Al  Al13  1  0.55889095  0.20945700  0.05625951  1
  Al  Al14  1  0.77272580  0.09915100  0.30901967  1
  Al  Al15  1  0.87714287  0.21034693  0.05560612  1
  Al  Al16  1  0.56156613  0.20842363  0.55651529  1
  Al  Al17  1  0.10900011  0.43151435  0.30022221  1
  Al  Al18  1  0.22411968  0.53895278  0.05416373  1
  Al  Al19  1  0.77279778  0.42335367  0.80954496  1
  Al  Al20  1  0.44872057  0.42282214  0.30900491  1
  Al  Al21  1  0.55871334  0.53038434  0.05660126  1
  Al  Al22  1  0.10923287  0.43831074  0.81269516  1
  Al  Al23  1  0.22551337  0.53429175  0.55993062  1
  Al  Al24  1  0.77681534  0.42617722  0.30601960  1
  Al  Al25  1  0.88802981  0.53990483  0.05645271  1
  Al  Al26  1  0.44589545  0.42705318  0.80817099  1
  Al  Al27  1  0.55936656  0.52889138  0.55701290  1
  Al  Al28  1  0.22102198  0.86544698  0.04469534  1
  Al  Al29  1  0.78508968  0.76200659  0.81032706  1
  Al  Al30  1  0.87875277  0.87929200  0.56026990  1
  Al  Al31  1  0.56418584  0.87010395  0.05602008  1
  Al  Al32  1  0.10444179  0.75423843  0.80589540  1
  Al  Al33  1  0.78274016  0.75914746  0.30368662  1
  Al  Al34  1  0.88840380  0.87415364  0.05442389  1
  Al  Al35  1  0.56828654  0.86837664  0.55542511  1
  N  N36  1  0.21024066  0.22277437  0.35409497  1
  N  N37  1  0.10932289  0.09431217  0.08266389  1
  N  N38  1  0.86335118  0.21645475  0.87197678  1
  N  N39  1  0.77542192  0.09538190  0.61804211  1
  N  N40  1  0.56518945  0.21539637  0.36893947  1
  N  N41  1  0.44655342  0.09569431  0.09653906  1
  N  N42  1  0.21630731  0.22794948  0.86566546  1
  N  N43  1  0.08539439  0.10962840  0.61518464  1
  N  N44  1  0.86938312  0.21509544  0.36767480  1
  N  N45  1  0.77748552  0.09364656  0.11753660  1
  N  N46  1  0.56565048  0.21656296  0.86957755  1
  N  N47  1  0.46277492  0.08716563  0.59874078  1
  N  N48  1  0.23443189  0.51648168  0.36966185  1
  N  N49  1  0.10993945  0.43283940  0.10973237  1
  N  N50  1  0.88678478  0.53902824  0.86208706  1
  N  N51  1  0.76662384  0.41738476  0.62195462  1
  N  N52  1  0.56580247  0.51822434  0.36781805  1
  N  N53  1  0.44321416  0.42821031  0.11744941  1
  N  N54  1  0.22502875  0.53919364  0.86597282  1
  N  N55  1  0.11543657  0.44130983  0.62756885  1
  N  N56  1  0.89029721  0.53881704  0.35216936  1
  N  N57  1  0.77773999  0.42830295  0.11540359  1
  N  N58  1  0.56481352  0.51656695  0.87160329  1
  N  N59  1  0.44299445  0.42873983  0.61761580  1
  N  N60  1  0.22156092  0.87256356  0.36762189  1
  N  N61  1  0.11023855  0.76070165  0.10252090  1
  N  N62  1  0.88885335  0.87523767  0.86522531  1
  N  N63  1  0.77224702  0.77856600  0.62399749  1
  N  N64  1  0.57831368  0.85872982  0.36757748  1
  N  N65  1  0.44542651  0.75949333  0.09097712  1
  N  N66  1  0.21565043  0.85760170  0.85337674  1
  N  N67  1  0.09673081  0.75103491  0.61322318  1
  N  N68  1  0.86766999  0.88521380  0.36989058  1
  N  N69  1  0.78255011  0.76062778  0.11382401  1
  N  N70  1  0.58098427  0.86267057  0.87338926  1
  N  N71  1  0.47116888  0.74729157  0.60495003  1
