# generated using pymatgen
data_Sc5Al13N18
_symmetry_space_group_name_H-M   'P 1'
_cell_length_a   9.83763902
_cell_length_b   9.82184490
_cell_length_c   10.14731879
_cell_angle_alpha   90.08565085
_cell_angle_beta   90.06055485
_cell_angle_gamma   60.05049607
_symmetry_Int_Tables_number   1
_chemical_formula_structural   Sc5Al13N18
_chemical_formula_sum   'Sc10 Al26 N36'
_cell_volume   849.54450526
_cell_formula_units_Z   2
loop_
 _symmetry_equiv_pos_site_id
 _symmetry_equiv_pos_as_xyz
  1  'x, y, z'
loop_
 _atom_site_type_symbol
 _atom_site_label
 _atom_site_symmetry_multiplicity
 _atom_site_fract_x
 _atom_site_fract_y
 _atom_site_fract_z
 _atom_site_occupancy
  Sc  Sc0  1  0.10052469  0.10001686  0.28818809  1
  Sc  Sc1  1  0.45043343  0.09569677  0.30102193  1
  Sc  Sc2  1  0.09855449  0.10350658  0.81582865  1
  Sc  Sc3  1  0.21906882  0.21223840  0.55145195  1
  Sc  Sc4  1  0.45392987  0.09550703  0.80311242  1
  Sc  Sc5  1  0.88297170  0.54256725  0.55452421  1
  Sc  Sc6  1  0.10590066  0.75587460  0.30271119  1
  Sc  Sc7  1  0.45253146  0.75216929  0.29750525  1
  Sc  Sc8  1  0.22166202  0.86971049  0.56405035  1
  Sc  Sc9  1  0.45872882  0.74960547  0.80782880  1
  Al  Al10  1  0.22232846  0.21329477  0.04179001  1
  Al  Al11  1  0.77557324  0.09729999  0.79653991  1
  Al  Al12  1  0.87529077  0.20841571  0.54702207  1
  Al  Al13  1  0.55892789  0.20940958  0.04534872  1
  Al  Al14  1  0.77272487  0.09909668  0.29818456  1
  Al  Al15  1  0.87713218  0.21031317  0.04466933  1
  Al  Al16  1  0.56155339  0.20831594  0.54564751  1
  Al  Al17  1  0.10906495  0.43146640  0.28931588  1
  Al  Al18  1  0.22414734  0.53889504  0.04321351  1
  Al  Al19  1  0.77276971  0.42336645  0.79869612  1
  Al  Al20  1  0.44870204  0.42275672  0.29813691  1
  Al  Al21  1  0.55865439  0.53041330  0.04571178  1
  Al  Al22  1  0.10925343  0.43825581  0.80177161  1
  Al  Al23  1  0.22548323  0.53431767  0.54908450  1
  Al  Al24  1  0.77675951  0.42614237  0.29508529  1
  Al  Al25  1  0.88806153  0.53983977  0.04559444  1
  Al  Al26  1  0.44591624  0.42698054  0.79727648  1
  Al  Al27  1  0.55931705  0.52884065  0.54609099  1
  Al  Al28  1  0.22102409  0.86547836  0.03383140  1
  Al  Al29  1  0.78509155  0.76186785  0.79942572  1
  Al  Al30  1  0.87877343  0.87918448  0.54942268  1
  Al  Al31  1  0.56417956  0.86993541  0.04505761  1
  Al  Al32  1  0.10444769  0.75425370  0.79507884  1
  Al  Al33  1  0.78272927  0.75909438  0.29279372  1
  Al  Al34  1  0.88835318  0.87412389  0.04348509  1
  Al  Al35  1  0.56827471  0.86833214  0.54453927  1
  N  N36  1  0.21037146  0.22269854  0.34316868  1
  N  N37  1  0.10928274  0.09435174  0.07178885  1
  N  N38  1  0.86333836  0.21642486  0.86108430  1
  N  N39  1  0.77543448  0.09531679  0.60717158  1
  N  N40  1  0.56515817  0.21530416  0.35809985  1
  N  N41  1  0.44660092  0.09558040  0.08553120  1
  N  N42  1  0.21632431  0.22792408  0.85481630  1
  N  N43  1  0.08537913  0.10970488  0.60426591  1
  N  N44  1  0.86933765  0.21509919  0.35685551  1
  N  N45  1  0.77750175  0.09359739  0.10670684  1
  N  N46  1  0.56567967  0.21650473  0.85871822  1
  N  N47  1  0.46282248  0.08705261  0.58803734  1
  N  N48  1  0.23440313  0.51652437  0.35883543  1
  N  N49  1  0.10998049  0.43279841  0.09887865  1
  N  N50  1  0.88684562  0.53893384  0.85127939  1
  N  N51  1  0.76654925  0.41742435  0.61113305  1
  N  N52  1  0.56578118  0.51817181  0.35695212  1
  N  N53  1  0.44321325  0.42815015  0.10660007  1
  N  N54  1  0.22505417  0.53914696  0.85507958  1
  N  N55  1  0.11544442  0.44125220  0.61668529  1
  N  N56  1  0.89032610  0.53872664  0.34122667  1
  N  N57  1  0.77771022  0.42826071  0.10452026  1
  N  N58  1  0.56476475  0.51658429  0.86074613  1
  N  N59  1  0.44299359  0.42866035  0.60675511  1
  N  N60  1  0.22139664  0.87263814  0.35657314  1
  N  N61  1  0.11020914  0.76066651  0.09152670  1
  N  N62  1  0.88879124  0.87519300  0.85434064  1
  N  N63  1  0.77226166  0.77840943  0.61312581  1
  N  N64  1  0.57832595  0.85868495  0.35674271  1
  N  N65  1  0.44538936  0.75945843  0.08023585  1
  N  N66  1  0.21560474  0.85766000  0.84261050  1
  N  N67  1  0.09672294  0.75103338  0.60247365  1
  N  N68  1  0.86769984  0.88512303  0.35906517  1
  N  N69  1  0.78252465  0.76058341  0.10296322  1
  N  N70  1  0.58097238  0.86245014  0.86247256  1
  N  N71  1  0.47096453  0.74732266  0.59389691  1
