# generated using pymatgen
data_Sc5Al13N18
_symmetry_space_group_name_H-M   'P 1'
_cell_length_a   9.85696957
_cell_length_b   9.82719029
_cell_length_c   10.35539651
_cell_angle_alpha   89.17863880
_cell_angle_beta   89.80311317
_cell_angle_gamma   59.90730843
_symmetry_Int_Tables_number   1
_chemical_formula_structural   Sc5Al13N18
_chemical_formula_sum   'Sc10 Al26 N36'
_cell_volume   867.79079314
_cell_formula_units_Z   2
loop_
 _symmetry_equiv_pos_site_id
 _symmetry_equiv_pos_as_xyz
  1  'x, y, z'
loop_
 _atom_site_type_symbol
 _atom_site_label
 _atom_site_symmetry_multiplicity
 _atom_site_fract_x
 _atom_site_fract_y
 _atom_site_fract_z
 _atom_site_occupancy
  Sc  Sc0  1  0.10234392  0.09932083  0.30375901  1
  Sc  Sc1  1  0.44996836  0.10045498  0.31664467  1
  Sc  Sc2  1  0.09827541  0.10421400  0.82970717  1
  Sc  Sc3  1  0.21880766  0.21298055  0.56558723  1
  Sc  Sc4  1  0.45255700  0.09725362  0.81837019  1
  Sc  Sc5  1  0.88305764  0.54722472  0.57795805  1
  Sc  Sc6  1  0.10452337  0.75761115  0.32645953  1
  Sc  Sc7  1  0.45131927  0.75879255  0.31689043  1
  Sc  Sc8  1  0.22371070  0.87040225  0.58027970  1
  Sc  Sc9  1  0.45602739  0.75318461  0.83546152  1
  Al  Al10  1  0.22090254  0.21168914  0.05771461  1
  Al  Al11  1  0.77582398  0.09745506  0.81298695  1
  Al  Al12  1  0.87910917  0.20095253  0.56010650  1
  Al  Al13  1  0.56351183  0.19962656  0.06014399  1
  Al  Al14  1  0.77288352  0.09723459  0.31374141  1
  Al  Al15  1  0.88211050  0.20119056  0.06151268  1
  Al  Al16  1  0.56451161  0.20332352  0.56214394  1
  Al  Al17  1  0.10411810  0.42745145  0.30384828  1
  Al  Al18  1  0.23122648  0.53184178  0.12467430  1
  Al  Al19  1  0.77185721  0.42950226  0.88289037  1
  Al  Al20  1  0.44525484  0.43036507  0.38082504  1
  Al  Al21  1  0.56158429  0.52549303  0.12623819  1
  Al  Al22  1  0.10800547  0.43578230  0.81934130  1
  Al  Al23  1  0.23103927  0.53806357  0.63831472  1
  Al  Al24  1  0.77009215  0.42681515  0.37706784  1
  Al  Al25  1  0.88850775  0.54350388  0.06672683  1
  Al  Al26  1  0.44497955  0.43109403  0.88333905  1
  Al  Al27  1  0.56095711  0.52655977  0.63253482  1
  Al  Al28  1  0.21985612  0.86467271  0.05496577  1
  Al  Al29  1  0.78358728  0.76545926  0.81707461  1
  Al  Al30  1  0.87741577  0.88142525  0.56748370  1
  Al  Al31  1  0.56351995  0.87047953  0.06363150  1
  Al  Al32  1  0.10076771  0.76277020  0.81710235  1
  Al  Al33  1  0.78115007  0.75980568  0.31362741  1
  Al  Al34  1  0.88966761  0.87138721  0.06246574  1
  Al  Al35  1  0.56618059  0.87151426  0.56508812  1
  N  N36  1  0.21102708  0.22101547  0.36296483  1
  N  N37  1  0.10988199  0.09250667  0.09268272  1
  N  N38  1  0.86657841  0.20998419  0.87865559  1
  N  N39  1  0.77516261  0.09656183  0.62696458  1
  N  N40  1  0.56930217  0.21078148  0.37791454  1
  N  N41  1  0.44540853  0.09519611  0.10576286  1
  N  N42  1  0.21603397  0.22683599  0.87546766  1
  N  N43  1  0.08546119  0.11002254  0.62309814  1
  N  N44  1  0.87519846  0.20372131  0.37093952  1
  N  N45  1  0.77774518  0.09064117  0.12557467  1
  N  N46  1  0.56984824  0.20851182  0.87619480  1
  N  N47  1  0.46116277  0.08986392  0.60893131  1
  N  N48  1  0.24098854  0.51177695  0.31356429  1
  N  N49  1  0.10590246  0.42782557  0.11482451  1
  N  N50  1  0.88850384  0.54333654  0.86549969  1
  N  N51  1  0.76121236  0.42204016  0.56475820  1
  N  N52  1  0.56583900  0.51465536  0.31022788  1
  N  N53  1  0.44448403  0.42979413  0.06945163  1
  N  N54  1  0.23083920  0.53835979  0.82946541  1
  N  N55  1  0.11552496  0.43723815  0.63371681  1
  N  N56  1  0.89013004  0.53907883  0.36099648  1
  N  N57  1  0.77469669  0.43062192  0.07270565  1
  N  N58  1  0.56947677  0.51065744  0.81724934  1
  N  N59  1  0.43770828  0.43835739  0.57053064  1
  N  N60  1  0.22269222  0.87167488  0.37744069  1
  N  N61  1  0.10830960  0.76174756  0.11421456  1
  N  N62  1  0.88814611  0.87512465  0.87571854  1
  N  N63  1  0.76971598  0.78370556  0.63411251  1
  N  N64  1  0.57701750  0.86216635  0.37993046  1
  N  N65  1  0.44509865  0.76000534  0.09952039  1
  N  N66  1  0.21359816  0.85966889  0.86891587  1
  N  N67  1  0.09252503  0.76017773  0.62400695  1
  N  N68  1  0.86654219  0.88384539  0.38008519  1
  N  N69  1  0.78091430  0.76150969  0.12525671  1
  N  N70  1  0.58135382  0.86385386  0.88424543  1
  N  N71  1  0.46868137  0.75387278  0.62105818  1
