# generated using pymatgen
data_Sc5Al13N18
_symmetry_space_group_name_H-M   'P 1'
_cell_length_a   9.92350009
_cell_length_b   9.91019612
_cell_length_c   10.07523140
_cell_angle_alpha   89.68053869
_cell_angle_beta   89.88015573
_cell_angle_gamma   60.10194356
_symmetry_Int_Tables_number   1
_chemical_formula_structural   Sc5Al13N18
_chemical_formula_sum   'Sc10 Al26 N36'
_cell_volume   858.95638891
_cell_formula_units_Z   2
loop_
 _symmetry_equiv_pos_site_id
 _symmetry_equiv_pos_as_xyz
  1  'x, y, z'
loop_
 _atom_site_type_symbol
 _atom_site_label
 _atom_site_symmetry_multiplicity
 _atom_site_fract_x
 _atom_site_fract_y
 _atom_site_fract_z
 _atom_site_occupancy
  Sc  Sc0  1  0.09525777  0.10625532  0.37116248  1
  Sc  Sc1  1  0.45180599  0.09660703  0.36115326  1
  Sc  Sc2  1  0.10261540  0.09963786  0.88026501  1
  Sc  Sc3  1  0.22436452  0.21239253  0.62393228  1
  Sc  Sc4  1  0.44759051  0.10196243  0.88060937  1
  Sc  Sc5  1  0.88495968  0.54089954  0.61182799  1
  Sc  Sc6  1  0.10431789  0.75164234  0.35859932  1
  Sc  Sc7  1  0.45478765  0.74683345  0.36380125  1
  Sc  Sc8  1  0.21544055  0.86789148  0.62227476  1
  Sc  Sc9  1  0.45280002  0.75213482  0.86301749  1
  Al  Al10  1  0.21792063  0.21244544  0.13564804  1
  Al  Al11  1  0.78018455  0.08998725  0.82220196  1
  Al  Al12  1  0.87619010  0.21315316  0.63528353  1
  Al  Al13  1  0.55309592  0.21433984  0.13031261  1
  Al  Al14  1  0.77399976  0.09587347  0.31249026  1
  Al  Al15  1  0.88288545  0.21181623  0.12720934  1
  Al  Al16  1  0.55748488  0.20997653  0.63218583  1
  Al  Al17  1  0.11476739  0.43163574  0.37708266  1
  Al  Al18  1  0.22932444  0.52979409  0.12792360  1
  Al  Al19  1  0.77777398  0.42940859  0.88401179  1
  Al  Al20  1  0.44815313  0.42314064  0.38243209  1
  Al  Al21  1  0.55889105  0.53030127  0.12987468  1
  Al  Al22  1  0.10385128  0.43777857  0.88549362  1
  Al  Al23  1  0.22100350  0.54228701  0.63371327  1
  Al  Al24  1  0.77105730  0.42189461  0.37913773  1
  Al  Al25  1  0.89213011  0.53324717  0.13433827  1
  Al  Al26  1  0.44744081  0.42674807  0.87988959  1
  Al  Al27  1  0.55950370  0.52727972  0.63345168  1
  Al  Al28  1  0.22370699  0.87068008  0.13318091  1
  Al  Al29  1  0.78536176  0.76406027  0.82157879  1
  Al  Al30  1  0.87544711  0.88350341  0.56555214  1
  Al  Al31  1  0.56757512  0.86339304  0.07863297  1
  Al  Al32  1  0.11347229  0.75311697  0.88830410  1
  Al  Al33  1  0.78037051  0.76258791  0.31804145  1
  Al  Al34  1  0.88232629  0.87527852  0.06876745  1
  Al  Al35  1  0.56983267  0.86889172  0.57146196  1
  N  N36  1  0.21137300  0.22504807  0.32481098  1
  N  N37  1  0.10925214  0.09636345  0.09599539  1
  N  N38  1  0.87014250  0.21966092  0.82965115  1
  N  N39  1  0.77997941  0.09083251  0.62477025  1
  N  N40  1  0.56075407  0.22093381  0.32012078  1
  N  N41  1  0.44475431  0.09539146  0.10300878  1
  N  N42  1  0.21183274  0.22785516  0.83288651  1
  N  N43  1  0.08698351  0.10949773  0.58582701  1
  N  N44  1  0.86676342  0.21941435  0.31564807  1
  N  N45  1  0.77798377  0.09079618  0.11312407  1
  N  N46  1  0.56048160  0.21855269  0.82479346  1
  N  N47  1  0.46399544  0.08954987  0.58539499  1
  N  N48  1  0.24021803  0.51345617  0.31457511  1
  N  N49  1  0.10865465  0.43066367  0.07734042  1
  N  N50  1  0.88965659  0.53761858  0.83175721  1
  N  N51  1  0.76417299  0.41724251  0.56724062  1
  N  N52  1  0.56507339  0.51405457  0.31729793  1
  N  N53  1  0.44501301  0.42780607  0.06915684  1
  N  N54  1  0.22234364  0.53913014  0.82894941  1
  N  N55  1  0.12003984  0.44195840  0.56370008  1
  N  N56  1  0.89126851  0.53372865  0.33460792  1
  N  N57  1  0.77789821  0.43074412  0.07522847  1
  N  N58  1  0.56814993  0.51634679  0.82332059  1
  N  N59  1  0.44080256  0.43082407  0.57553589  1
  N  N60  1  0.21965992  0.87225586  0.32609781  1
  N  N61  1  0.11415452  0.75586243  0.08914009  1
  N  N62  1  0.88977047  0.87250454  0.87884312  1
  N  N63  1  0.77173714  0.78365081  0.63311887  1
  N  N64  1  0.58149035  0.85535943  0.37953227  1
  N  N65  1  0.44754227  0.75666882  0.09870562  1
  N  N66  1  0.21177162  0.86207755  0.83344055  1
  N  N67  1  0.09830371  0.75078391  0.57404545  1
  N  N68  1  0.86013784  0.89080013  0.37373458  1
  N  N69  1  0.78302322  0.76019405  0.12855484  1
  N  N70  1  0.58373026  0.86091267  0.88884194  1
  N  N71  1  0.46572418  0.74942420  0.60023969  1
