# generated using pymatgen
data_Sc5Al13N18
_symmetry_space_group_name_H-M   'P 1'
_cell_length_a   9.88141641
_cell_length_b   9.85322823
_cell_length_c   10.05639162
_cell_angle_alpha   89.88799350
_cell_angle_beta   89.74529291
_cell_angle_gamma   60.11418915
_symmetry_Int_Tables_number   1
_chemical_formula_structural   Sc5Al13N18
_chemical_formula_sum   'Sc10 Al26 N36'
_cell_volume   848.91618141
_cell_formula_units_Z   2
loop_
 _symmetry_equiv_pos_site_id
 _symmetry_equiv_pos_as_xyz
  1  'x, y, z'
loop_
 _atom_site_type_symbol
 _atom_site_label
 _atom_site_symmetry_multiplicity
 _atom_site_fract_x
 _atom_site_fract_y
 _atom_site_fract_z
 _atom_site_occupancy
  Sc  Sc0  1  0.09572431  0.10346646  0.37779335  1
  Sc  Sc1  1  0.45197792  0.09538068  0.37329854  1
  Sc  Sc2  1  0.10063911  0.10112037  0.89234389  1
  Sc  Sc3  1  0.22311009  0.21242365  0.63187512  1
  Sc  Sc4  1  0.44923134  0.09933956  0.89228755  1
  Sc  Sc5  1  0.88382545  0.54218233  0.63165092  1
  Sc  Sc6  1  0.10274943  0.75193378  0.38104999  1
  Sc  Sc7  1  0.45683692  0.74913914  0.37978448  1
  Sc  Sc8  1  0.22093367  0.86768022  0.63579668  1
  Sc  Sc9  1  0.45169905  0.75309830  0.88768057  1
  Al  Al10  1  0.21728541  0.21390793  0.14650849  1
  Al  Al11  1  0.77525750  0.09757948  0.89006788  1
  Al  Al12  1  0.87418432  0.20906636  0.64317772  1
  Al  Al13  1  0.56065448  0.21132646  0.14373415  1
  Al  Al14  1  0.77218991  0.09908219  0.39239841  1
  Al  Al15  1  0.87812954  0.20999908  0.14177574  1
  Al  Al16  1  0.56170274  0.20704494  0.64066074  1
  Al  Al17  1  0.11191026  0.43412491  0.38669496  1
  Al  Al18  1  0.22831940  0.53183229  0.13754029  1
  Al  Al19  1  0.77676667  0.42733906  0.89399910  1
  Al  Al20  1  0.44815949  0.42350805  0.39170044  1
  Al  Al21  1  0.55928666  0.52983051  0.14139996  1
  Al  Al22  1  0.10660123  0.43607148  0.89751434  1
  Al  Al23  1  0.22307199  0.54018141  0.64627231  1
  Al  Al24  1  0.77236463  0.42300256  0.38870669  1
  Al  Al25  1  0.88902382  0.53881950  0.14403518  1
  Al  Al26  1  0.44819969  0.42594800  0.88913589  1
  Al  Al27  1  0.56018995  0.52862581  0.64252470  1
  Al  Al28  1  0.22165367  0.86911586  0.14370801  1
  Al  Al29  1  0.78734005  0.75697924  0.89734737  1
  Al  Al30  1  0.88460835  0.87613864  0.64548699  1
  Al  Al31  1  0.56489639  0.86647159  0.14031851  1
  Al  Al32  1  0.10668859  0.75749655  0.89674881  1
  Al  Al33  1  0.78039516  0.76460892  0.38787891  1
  Al  Al34  1  0.88273253  0.87754552  0.13901675  1
  Al  Al35  1  0.56842079  0.87128152  0.63877538  1
  N  N36  1  0.21074114  0.22565103  0.33620798  1
  N  N37  1  0.10709474  0.09695852  0.10916550  1
  N  N38  1  0.86793618  0.21672311  0.83370025  1
  N  N39  1  0.77765637  0.09304953  0.58497851  1
  N  N40  1  0.56668558  0.21701104  0.33136923  1
  N  N41  1  0.44522106  0.09711703  0.11037963  1
  N  N42  1  0.21274832  0.22641096  0.84189839  1
  N  N43  1  0.08724441  0.10711705  0.59367871  1
  N  N44  1  0.86317018  0.21592586  0.32760698  1
  N  N45  1  0.77603610  0.09574108  0.08043694  1
  N  N46  1  0.56531812  0.21528681  0.83005420  1
  N  N47  1  0.46482801  0.08693903  0.59259270  1
  N  N48  1  0.23937812  0.51563424  0.32482568  1
  N  N49  1  0.10879018  0.43085389  0.08851379  1
  N  N50  1  0.88955348  0.53877799  0.84615034  1
  N  N51  1  0.76681336  0.41683577  0.57762935  1
  N  N52  1  0.56504059  0.51556484  0.32827502  1
  N  N53  1  0.44640720  0.42637935  0.07964172  1
  N  N54  1  0.22309765  0.53847431  0.84031360  1
  N  N55  1  0.11758256  0.44411626  0.57413539  1
  N  N56  1  0.88850905  0.53939840  0.34016147  1
  N  N57  1  0.77822685  0.42866607  0.08567924  1
  N  N58  1  0.56703163  0.51879399  0.83245081  1
  N  N59  1  0.44140386  0.43038508  0.58540119  1
  N  N60  1  0.22144517  0.86712947  0.33480919  1
  N  N61  1  0.10883397  0.75873852  0.09299811  1
  N  N62  1  0.88899787  0.87311407  0.83979589  1
  N  N63  1  0.77507957  0.77909235  0.57771463  1
  N  N64  1  0.57847150  0.85889045  0.32659245  1
  N  N65  1  0.44702266  0.75707180  0.10500493  1
  N  N66  1  0.21277321  0.86303062  0.84578549  1
  N  N67  1  0.09858742  0.75273956  0.59240670  1
  N  N68  1  0.86668435  0.88867346  0.32694270  1
  N  N69  1  0.78356918  0.75780981  0.08743834  1
  N  N70  1  0.57934631  0.86354009  0.83942680  1
  N  N71  1  0.46919490  0.74932439  0.59917842  1
