# generated using pymatgen
data_ScAl17N18
_symmetry_space_group_name_H-M   'P 1'
_cell_length_a   9.49903921
_cell_length_b   9.49656429
_cell_length_c   9.99387110
_cell_angle_alpha   90.00000624
_cell_angle_beta   90.02309287
_cell_angle_gamma   60.00863905
_symmetry_Int_Tables_number   1
_chemical_formula_structural   ScAl17N18
_chemical_formula_sum   'Sc2 Al34 N36'
_cell_volume   780.81531188
_cell_formula_units_Z   2
loop_
 _symmetry_equiv_pos_site_id
 _symmetry_equiv_pos_as_xyz
  1  'x, y, z'
loop_
 _atom_site_type_symbol
 _atom_site_label
 _atom_site_symmetry_multiplicity
 _atom_site_fract_x
 _atom_site_fract_y
 _atom_site_fract_z
 _atom_site_occupancy
  Al  Al0  1  0.11118505  0.09406987  0.40216837  1
  Al  Al1  1  0.21813012  0.20548491  0.15252682  1
  Al  Al2  1  0.78398504  0.09145345  0.89866809  1
  Al  Al3  1  0.88963705  0.20613692  0.65161017  1
  Al  Al4  1  0.44086733  0.10009797  0.40298410  1
  Al  Al5  1  0.11067378  0.09487639  0.90222193  1
  Al  Al6  1  0.21813009  0.20971834  0.65252680  1
  Al  Al7  1  0.77882098  0.09401759  0.40573353  1
  Al  Al8  1  0.89289767  0.20442373  0.15253054  1
  Al  Al9  1  0.44086734  0.09236807  0.90298413  1
  Al  Al10  1  0.55440017  0.20912480  0.65446319  1
  Al  Al11  1  0.11067376  0.42778314  0.40222194  1
  Al  Al12  1  0.21941293  0.54291558  0.15273196  1
  Al  Al13  1  0.77788109  0.42772678  0.90168058  1
  Al  Al14  1  0.89289759  0.53601198  0.65253052  1
  Al  Al15  1  0.44426727  0.42856397  0.40613121  1
  Al  Al16  1  0.55489637  0.54162488  0.15216105  1
  Al  Al17  1  0.11118503  0.42807836  0.90216834  1
  Al  Al18  1  0.22068701  0.53957245  0.65107216  1
  Al  Al19  1  0.77788108  0.42772540  0.40168059  1
  Al  Al20  1  0.88963704  0.53755939  0.15161019  1
  Al  Al21  1  0.44075547  0.43427545  0.89889252  1
  Al  Al22  1  0.55489635  0.53681210  0.65216106  1
  Al  Al23  1  0.11114668  0.76170797  0.40242966  1
  Al  Al24  1  0.22068706  0.87307386  0.15107218  1
  Al  Al25  1  0.77882098  0.76049471  0.90573351  1
  Al  Al26  1  0.89363894  0.86952203  0.65224606  1
  Al  Al27  1  0.44075548  0.75830240  0.39889259  1
  Al  Al28  1  0.55440018  0.86980841  0.15446320  1
  Al  Al29  1  0.11114668  0.76047864  0.90242965  1
  Al  Al30  1  0.21941290  0.87100483  0.65273200  1
  Al  Al31  1  0.78398494  0.75789488  0.39866815  1
  Al  Al32  1  0.89363899  0.87017235  0.15224604  1
  Al  Al33  1  0.44426727  0.76050205  0.90613124  1
  Sc  Sc34  1  0.55651902  0.20676399  0.14282571  1
  Sc  Sc35  1  0.55651895  0.87005051  0.64282585  1
  N  N36  1  0.22034469  0.20645317  0.34410311  1
  N  N37  1  0.11079393  0.09481348  0.09396474  1
  N  N38  1  0.88987318  0.20675241  0.84248716  1
  N  N39  1  0.77841748  0.09351839  0.59860743  1
  N  N40  1  0.55681283  0.20650268  0.35529978  1
  N  N41  1  0.43340003  0.08526852  0.09283460  1
  N  N42  1  0.22034473  0.20653548  0.84410310  1
  N  N43  1  0.11191842  0.09356527  0.59469098  1
  N  N44  1  0.88889925  0.20537919  0.34561428  1
  N  N45  1  0.79983454  0.08383912  0.08796385  1
  N  N46  1  0.55538738  0.20567681  0.85204127  1
  N  N47  1  0.43339999  0.11466485  0.59283460  1
  N  N48  1  0.22241589  0.53887398  0.34581185  1
  N  N49  1  0.11191841  0.42784959  0.09469100  1
  N  N50  1  0.88889922  0.53905489  0.84561421  1
  N  N51  1  0.77749684  0.42874750  0.59438509  1
  N  N52  1  0.55645201  0.53663068  0.34365367  1
  N  N53  1  0.43292552  0.44999044  0.08804209  1
  N  N54  1  0.21993406  0.53992237  0.84243353  1
  N  N55  1  0.11079386  0.42772593  0.59396469  1
  N  N56  1  0.88987311  0.53670780  0.34248718  1
  N  N57  1  0.77749687  0.42708888  0.09438505  1
  N  N58  1  0.55645200  0.54025067  0.84365366  1
  N  N59  1  0.44371144  0.42852095  0.59812893  1
  N  N60  1  0.21993408  0.87347690  0.34243357  1
  N  N61  1  0.11136696  0.76081090  0.09402287  1
  N  N62  1  0.88982942  0.86987762  0.84372193  1
  N  N63  1  0.79983441  0.74965972  0.58796396  1
  N  N64  1  0.55538731  0.87226922  0.35204126  1
  N  N65  1  0.44371147  0.76110089  0.09812894  1
  N  N66  1  0.22241589  0.87204347  0.84581188  1
  N  N67  1  0.11136691  0.76115546  0.59402287  1
  N  N68  1  0.88982940  0.87362629  0.34372194  1
  N  N69  1  0.77841749  0.76139743  0.09860740  1
  N  N70  1  0.55681280  0.87001788  0.85529985  1
  N  N71  1  0.43292555  0.75041737  0.58804216  1
