# generated using pymatgen
data_ScAl17N18
_symmetry_space_group_name_H-M   'P 1'
_cell_length_a   10.01665131
_cell_length_b   10.01041812
_cell_length_c   8.45041167
_cell_angle_alpha   89.99999888
_cell_angle_beta   90.00614922
_cell_angle_gamma   60.01930077
_symmetry_Int_Tables_number   1
_chemical_formula_structural   ScAl17N18
_chemical_formula_sum   'Sc2 Al34 N36'
_cell_volume   733.95207145
_cell_formula_units_Z   2
loop_
 _symmetry_equiv_pos_site_id
 _symmetry_equiv_pos_as_xyz
  1  'x, y, z'
loop_
 _atom_site_type_symbol
 _atom_site_label
 _atom_site_symmetry_multiplicity
 _atom_site_fract_x
 _atom_site_fract_y
 _atom_site_fract_z
 _atom_site_occupancy
  Al  Al0  1  0.11118712  0.09400703  0.35787694  1
  Al  Al1  1  0.21768933  0.20597990  0.10713542  1
  Al  Al2  1  0.78256691  0.09247963  0.85272139  1
  Al  Al3  1  0.88976548  0.20641705  0.60651665  1
  Al  Al4  1  0.44000048  0.09685220  0.35565044  1
  Al  Al5  1  0.11040552  0.09490149  0.85700143  1
  Al  Al6  1  0.21768979  0.20966237  0.60713508  1
  Al  Al7  1  0.78185388  0.09251373  0.36072329  1
  Al  Al8  1  0.89247212  0.20514926  0.10834028  1
  Al  Al9  1  0.44000041  0.09648046  0.85565049  1
  Al  Al10  1  0.55482760  0.20893581  0.60547253  1
  Al  Al11  1  0.11040571  0.42802739  0.35700170  1
  Al  Al12  1  0.21917418  0.54230549  0.10847052  1
  Al  Al13  1  0.77798100  0.42735725  0.85729088  1
  Al  Al14  1  0.89247229  0.53571285  0.60834005  1
  Al  Al15  1  0.44245128  0.43162489  0.36015998  1
  Al  Al16  1  0.55567373  0.54083670  0.10718057  1
  Al  Al17  1  0.11118731  0.42814004  0.85787658  1
  Al  Al18  1  0.22042853  0.53972435  0.60646235  1
  Al  Al19  1  0.77798092  0.42799812  0.35729090  1
  Al  Al20  1  0.88976556  0.53715164  0.10651671  1
  Al  Al21  1  0.44158529  0.43241019  0.85324723  1
  Al  Al22  1  0.55567353  0.53682078  0.60718071  1
  Al  Al23  1  0.11136510  0.76150231  0.35760124  1
  Al  Al24  1  0.22042779  0.87317914  0.10646224  1
  Al  Al25  1  0.78185337  0.75896868  0.86072331  1
  Al  Al26  1  0.89341297  0.86989256  0.60732141  1
  Al  Al27  1  0.44158432  0.75933800  0.35324730  1
  Al  Al28  1  0.55482683  0.86956774  0.10547249  1
  Al  Al29  1  0.11136511  0.76046633  0.85760182  1
  Al  Al30  1  0.21917306  0.87185232  0.60847076  1
  Al  Al31  1  0.78256646  0.75828986  0.35272125  1
  Al  Al32  1  0.89341305  0.87002820  0.10732113  1
  Al  Al33  1  0.44245040  0.75925739  0.86015994  1
  Sc  Sc34  1  0.55686804  0.20619450  0.10427597  1
  Sc  Sc35  1  0.55686749  0.87026720  0.60427604  1
  N  N36  1  0.21912226  0.20700794  0.35164800  1
  N  N37  1  0.11010904  0.09510660  0.10121992  1
  N  N38  1  0.88972512  0.20655918  0.84807095  1
  N  N39  1  0.77955851  0.09298880  0.60280681  1
  N  N40  1  0.55659145  0.20628162  0.36131251  1
  N  N41  1  0.43435250  0.08777419  0.10238331  1
  N  N42  1  0.21912230  0.20720070  0.85164707  1
  N  N43  1  0.11216296  0.09323235  0.60165527  1
  N  N44  1  0.88958603  0.20617556  0.35462383  1
  N  N45  1  0.79661276  0.08585501  0.10034996  1
  N  N46  1  0.55630617  0.20619315  0.84556266  1
  N  N47  1  0.43435343  0.11120684  0.60238318  1
  N  N48  1  0.22096449  0.53953617  0.35412664  1
  N  N49  1  0.11216298  0.42793984  0.10165529  1
  N  N50  1  0.88958617  0.53757146  0.85462355  1
  N  N51  1  0.77772363  0.42919640  0.60140782  1
  N  N52  1  0.55694114  0.53785956  0.35144252  1
  N  N53  1  0.43448936  0.44609585  0.10064966  1
  N  N54  1  0.22047929  0.53965528  0.84863533  1
  N  N55  1  0.11010927  0.42811977  0.60121997  1
  N  N56  1  0.88972523  0.53704881  0.34807134  1
  N  N57  1  0.77772398  0.42641772  0.10140789  1
  N  N58  1  0.55694119  0.53852933  0.85144276  1
  N  N59  1  0.44327402  0.42972087  0.60265127  1
  N  N60  1  0.22047833  0.87319657  0.34863486  1
  N  N61  1  0.11158904  0.76023940  0.10132928  1
  N  N62  1  0.89047653  0.87099441  0.85136807  1
  N  N63  1  0.79661236  0.75087022  0.60035006  1
  N  N64  1  0.55630570  0.87083061  0.34556267  1
  N  N65  1  0.44327331  0.76033967  0.10265113  1
  N  N66  1  0.22096351  0.87283056  0.85412698  1
  N  N67  1  0.11158890  0.76150619  0.60132930  1
  N  N68  1  0.89047655  0.87186168  0.35136738  1
  N  N69  1  0.77955770  0.76079042  0.10280678  1
  N  N70  1  0.55659094  0.87045702  0.86131242  1
  N  N71  1  0.43448796  0.75274932  0.60064972  1
