# generated using pymatgen
data_ScAl17N18
_symmetry_space_group_name_H-M   'P 1'
_cell_length_a   9.79961889
_cell_length_b   9.79541891
_cell_length_c   9.11312879
_cell_angle_alpha   89.99999932
_cell_angle_beta   90.01700680
_cell_angle_gamma   60.01663134
_symmetry_Int_Tables_number   1
_chemical_formula_structural   ScAl17N18
_chemical_formula_sum   'Sc2 Al34 N36'
_cell_volume   757.71009320
_cell_formula_units_Z   2
loop_
 _symmetry_equiv_pos_site_id
 _symmetry_equiv_pos_as_xyz
  1  'x, y, z'
loop_
 _atom_site_type_symbol
 _atom_site_label
 _atom_site_symmetry_multiplicity
 _atom_site_fract_x
 _atom_site_fract_y
 _atom_site_fract_z
 _atom_site_occupancy
  Al  Al0  1  0.11214322  0.09297573  0.37457145  1
  Al  Al1  1  0.21760284  0.20575883  0.12423729  1
  Al  Al2  1  0.78495562  0.09157092  0.86724258  1
  Al  Al3  1  0.89002895  0.20670305  0.62053433  1
  Al  Al4  1  0.44016723  0.10017906  0.37179985  1
  Al  Al5  1  0.10946485  0.09607411  0.87364713  1
  Al  Al6  1  0.21760218  0.20997417  0.62423773  1
  Al  Al7  1  0.77927063  0.09341646  0.37795362  1
  Al  Al8  1  0.89267134  0.20451541  0.12705600  1
  Al  Al9  1  0.44016751  0.09298478  0.87179933  1
  Al  Al10  1  0.55455065  0.20898026  0.62272567  1
  Al  Al11  1  0.10946485  0.42779255  0.37364695  1
  Al  Al12  1  0.21961329  0.54252577  0.12727714  1
  Al  Al13  1  0.77799459  0.42663752  0.87359542  1
  Al  Al14  1  0.89267122  0.53614836  0.62705609  1
  Al  Al15  1  0.44456302  0.42897302  0.37792553  1
  Al  Al16  1  0.55543989  0.54038073  0.12400467  1
  Al  Al17  1  0.11214320  0.42821255  0.87457151  1
  Al  Al18  1  0.21980393  0.54000693  0.62031493  1
  Al  Al19  1  0.77799465  0.42869934  0.37359565  1
  Al  Al20  1  0.89002896  0.53660308  0.12053420  1
  Al  Al21  1  0.43968474  0.43510264  0.86796962  1
  Al  Al22  1  0.55544018  0.53751493  0.62400441  1
  Al  Al23  1  0.11116792  0.76292597  0.37440663  1
  Al  Al24  1  0.21980392  0.87352502  0.12031523  1
  Al  Al25  1  0.77927058  0.76064415  0.87795379  1
  Al  Al26  1  0.89375017  0.86874052  0.62410055  1
  Al  Al27  1  0.43968512  0.75854390  0.36796929  1
  Al  Al28  1  0.55455092  0.86980461  0.12272560  1
  Al  Al29  1  0.11116791  0.75923768  0.87440634  1
  Al  Al30  1  0.21961402  0.87119620  0.62727695  1
  Al  Al31  1  0.78495554  0.75680444  0.36724254  1
  Al  Al32  1  0.89375000  0.87084436  0.12410077  1
  Al  Al33  1  0.44456299  0.75979522  0.87792566  1
  Sc  Sc34  1  0.55697854  0.20668246  0.10761851  1
  Sc  Sc35  1  0.55697845  0.86967529  0.60761852  1
  N  N36  1  0.21930861  0.20675910  0.33509039  1
  N  N37  1  0.10953826  0.09592304  0.08450463  1
  N  N38  1  0.89009190  0.20721227  0.83025959  1
  N  N39  1  0.77861181  0.09302000  0.59059361  1
  N  N40  1  0.55711113  0.20670189  0.34520820  1
  N  N41  1  0.43336912  0.08592786  0.08542079  1
  N  N42  1  0.21930880  0.20726920  0.83509128  1
  N  N43  1  0.11298109  0.09249315  0.58582165  1
  N  N44  1  0.88917808  0.20549558  0.33978812  1
  N  N45  1  0.79992346  0.08456670  0.07911292  1
  N  N46  1  0.55559433  0.20582042  0.84224045  1
  N  N47  1  0.43336826  0.11403289  0.58542064  1
  N  N48  1  0.22204206  0.53915711  0.33967464  1
  N  N49  1  0.11298117  0.42785540  0.08582158  1
  N  N50  1  0.88917801  0.53866322  0.83978831  1
  N  N51  1  0.77764087  0.42998154  0.58511813  1
  N  N52  1  0.55698012  0.53631384  0.33471834  1
  N  N53  1  0.43244062  0.44960271  0.07966240  1
  N  N54  1  0.21933840  0.54009981  0.83064078  1
  N  N55  1  0.10953805  0.42786865  0.58450468  1
  N  N56  1  0.89009198  0.53603274  0.33025927  1
  N  N57  1  0.77764059  0.42570688  0.08511803  1
  N  N58  1  0.55698009  0.54004334  0.83471797  1
  N  N59  1  0.44410607  0.42890363  0.59004248  1
  N  N60  1  0.21933898  0.87389876  0.33064131  1
  N  N61  1  0.11138696  0.75963009  0.08500409  1
  N  N62  1  0.89027320  0.86936982  0.83472057  1
  N  N63  1  0.79992340  0.74883847  0.57911287  1
  N  N64  1  0.55559426  0.87192193  0.34224040  1
  N  N65  1  0.44410591  0.76032031  0.09004272  1
  N  N66  1  0.22204230  0.87213778  0.83967423  1
  N  N67  1  0.11138720  0.76231298  0.58500400  1
  N  N68  1  0.89027300  0.87369365  0.33472120  1
  N  N69  1  0.77861196  0.76169739  0.09059364  1
  N  N70  1  0.55711100  0.86952377  0.84520841  1
  N  N71  1  0.43244143  0.75128595  0.57966265  1
