# generated using pymatgen
data_ScAl17N18
_symmetry_space_group_name_H-M   'P 1'
_cell_length_a   9.69842634
_cell_length_b   9.69508339
_cell_length_c   9.42320084
_cell_angle_alpha   90.00004326
_cell_angle_beta   89.98175618
_cell_angle_gamma   60.01453836
_symmetry_Int_Tables_number   1
_chemical_formula_structural   ScAl17N18
_chemical_formula_sum   'Sc2 Al34 N36'
_cell_volume   767.44184417
_cell_formula_units_Z   2
loop_
 _symmetry_equiv_pos_site_id
 _symmetry_equiv_pos_as_xyz
  1  'x, y, z'
loop_
 _atom_site_type_symbol
 _atom_site_label
 _atom_site_symmetry_multiplicity
 _atom_site_fract_x
 _atom_site_fract_y
 _atom_site_fract_z
 _atom_site_occupancy
  Al  Al0  1  0.10979609  0.09577200  0.33050376  1
  Al  Al1  1  0.21777281  0.20552395  0.08004293  1
  Al  Al2  1  0.77835525  0.09401273  0.82696852  1
  Al  Al3  1  0.88987876  0.20656849  0.58308946  1
  Al  Al4  1  0.44025464  0.09146475  0.33153939  1
  Al  Al5  1  0.11188096  0.09326351  0.82994262  1
  Al  Al6  1  0.21777159  0.21003997  0.58004194  1
  Al  Al7  1  0.78568562  0.09102931  0.33573241  1
  Al  Al8  1  0.89284759  0.20438591  0.07795879  1
  Al  Al9  1  0.44025383  0.10161329  0.83153882  1
  Al  Al10  1  0.55442912  0.20918085  0.57826445  1
  Al  Al11  1  0.11188082  0.42818741  0.32994234  1
  Al  Al12  1  0.21953483  0.54275063  0.07771126  1
  Al  Al13  1  0.77799039  0.42838694  0.83076239  1
  Al  Al14  1  0.89284730  0.53610030  0.57795854  1
  Al  Al15  1  0.43943578  0.43594521  0.33512449  1
  Al  Al16  1  0.55524178  0.54084075  0.08032594  1
  Al  Al17  1  0.10979603  0.42776334  0.83050408  1
  Al  Al18  1  0.22009306  0.53985203  0.58341748  1
  Al  Al19  1  0.77798998  0.42695295  0.33076255  1
  Al  Al20  1  0.88987889  0.53688576  0.08308985  1
  Al  Al21  1  0.44494329  0.42805961  0.82677417  1
  Al  Al22  1  0.55524267  0.53725318  0.58032623  1
  Al  Al23  1  0.11113116  0.75953757  0.32991550  1
  Al  Al24  1  0.22009355  0.87339091  0.08341682  1
  Al  Al25  1  0.78568582  0.75661441  0.83573210  1
  Al  Al26  1  0.89377120  0.86891605  0.58024874  1
  Al  Al27  1  0.44494365  0.76032886  0.32677376  1
  Al  Al28  1  0.55442988  0.86972625  0.07826457  1
  Al  Al29  1  0.11113118  0.76266307  0.82991498  1
  Al  Al30  1  0.21953613  0.87104998  0.57771162  1
  Al  Al31  1  0.77835583  0.76096202  0.32696856  1
  Al  Al32  1  0.89377123  0.87064645  0.08024802  1
  Al  Al33  1  0.43943717  0.75795060  0.83512515  1
  Sc  Sc34  1  0.55676817  0.20663026  0.09804935  1
  Sc  Sc35  1  0.55676859  0.86994123  0.59804918  1
  N  N36  1  0.21959743  0.20704184  0.37775059  1
  N  N37  1  0.10984919  0.09567389  0.12810547  1
  N  N38  1  0.88908060  0.20542384  0.87395012  1
  N  N39  1  0.77801796  0.09339674  0.62261083  1
  N  N40  1  0.55547891  0.20577282  0.36778503  1
  N  N41  1  0.43312090  0.08464708  0.12832827  1
  N  N42  1  0.21959705  0.20669910  0.87775216  1
  N  N43  1  0.11278492  0.09275080  0.62700428  1
  N  N44  1  0.89011388  0.20712419  0.38160134  1
  N  N45  1  0.80095358  0.08386463  0.13395646  1
  N  N46  1  0.55707726  0.20674794  0.87018666  1
  N  N47  1  0.43311862  0.11556268  0.62832848  1
  N  N48  1  0.21937125  0.54013497  0.38137321  1
  N  N49  1  0.11278486  0.42779285  0.12700435  1
  N  N50  1  0.89011388  0.53609856  0.88160204  1
  N  N51  1  0.77759905  0.42970955  0.62759290  1
  N  N52  1  0.55687396  0.54023118  0.37812845  1
  N  N53  1  0.43201476  0.45080197  0.13352348  1
  N  N54  1  0.22220909  0.53905550  0.87388029  1
  N  N55  1  0.10984898  0.42780554  0.62810547  1
  N  N56  1  0.88908027  0.53883239  0.37394947  1
  N  N57  1  0.77759830  0.42601745  0.12759313  1
  N  N58  1  0.55687410  0.53623402  0.87812777  1
  N  N59  1  0.44431793  0.42833651  0.62311488  1
  N  N60  1  0.22220985  0.87207386  0.37388117  1
  N  N61  1  0.11133538  0.75990546  0.12772733  1
  N  N62  1  0.89015940  0.87382439  0.87809853  1
  N  N63  1  0.80095337  0.74850737  0.63395666  1
  N  N64  1  0.55707737  0.86951376  0.37018629  1
  N  N65  1  0.44431813  0.76067527  0.12311456  1
  N  N66  1  0.21937240  0.87383214  0.88137221  1
  N  N67  1  0.11133622  0.76208859  0.62772735  1
  N  N68  1  0.89015959  0.86935315  0.37809925  1
  N  N69  1  0.77801889  0.76191145  0.12261058  1
  N  N70  1  0.55547904  0.87208714  0.86778511  1
  N  N71  1  0.43201666  0.75051194  0.63352304  1
