# generated using pymatgen
data_ScAl17N18
_symmetry_space_group_name_H-M   'P 1'
_cell_length_a   9.89166430
_cell_length_b   9.88662159
_cell_length_c   8.82488678
_cell_angle_alpha   89.99999919
_cell_angle_beta   90.01473515
_cell_angle_gamma   60.01756621
_symmetry_Int_Tables_number   1
_chemical_formula_structural   ScAl17N18
_chemical_formula_sum   'Sc2 Al34 N36'
_cell_volume   747.53904687
_cell_formula_units_Z   2
loop_
 _symmetry_equiv_pos_site_id
 _symmetry_equiv_pos_as_xyz
  1  'x, y, z'
loop_
 _atom_site_type_symbol
 _atom_site_label
 _atom_site_symmetry_multiplicity
 _atom_site_fract_x
 _atom_site_fract_y
 _atom_site_fract_z
 _atom_site_occupancy
  Al  Al0  1  0.11214620  0.09297570  0.36934015  1
  Al  Al1  1  0.21753748  0.20594591  0.11867724  1
  Al  Al2  1  0.78392421  0.09215322  0.86128685  1
  Al  Al3  1  0.89003804  0.20668575  0.61521194  1
  Al  Al4  1  0.44015142  0.09847213  0.36527666  1
  Al  Al5  1  0.10943383  0.09603188  0.86819790  1
  Al  Al6  1  0.21753739  0.20985061  0.61867702  1
  Al  Al7  1  0.78033102  0.09286443  0.37271533  1
  Al  Al8  1  0.89254297  0.20475526  0.12184300  1
  Al  Al9  1  0.44015140  0.09470863  0.86527646  1
  Al  Al10  1  0.55468763  0.20885548  0.61431463  1
  Al  Al11  1  0.10943393  0.42786714  0.36819793  1
  Al  Al12  1  0.21951427  0.54237452  0.12203397  1
  Al  Al13  1  0.77799444  0.42655768  0.86831670  1
  Al  Al14  1  0.89254301  0.53603641  0.62184291  1
  Al  Al15  1  0.44390861  0.43005980  0.37243614  1
  Al  Al16  1  0.55560391  0.54027634  0.11857300  1
  Al  Al17  1  0.11214629  0.42821074  0.86934008  1
  Al  Al18  1  0.21981882  0.54001951  0.61509035  1
  Al  Al19  1  0.77799439  0.42878135  0.36831670  1
  Al  Al20  1  0.89003812  0.53661081  0.11521201  1
  Al  Al21  1  0.44025998  0.43395177  0.86202648  1
  Al  Al22  1  0.55560391  0.53745335  0.61857307  1
  Al  Al23  1  0.11122956  0.76281812  0.36905954  1
  Al  Al24  1  0.21981855  0.87349582  0.11509031  1
  Al  Al25  1  0.78033080  0.76013777  0.87271531  1
  Al  Al26  1  0.89364547  0.86896839  0.61871212  1
  Al  Al27  1  0.44025975  0.75912043  0.36202630  1
  Al  Al28  1  0.55468741  0.86979048  0.11431462  1
  Al  Al29  1  0.11122961  0.75928482  0.86905958  1
  Al  Al30  1  0.21951412  0.87144510  0.62203404  1
  Al  Al31  1  0.78392401  0.75725589  0.36128685  1
  Al  Al32  1  0.89364548  0.87072050  0.11871193  1
  Al  Al33  1  0.44390834  0.75936383  0.87243623  1
  Sc  Sc34  1  0.55705597  0.20661287  0.10574929  1
  Sc  Sc35  1  0.55705578  0.86966514  0.60574924  1
  N  N36  1  0.21913488  0.20683179  0.34062916  1
  N  N37  1  0.10948543  0.09588186  0.08981876  1
  N  N38  1  0.88998526  0.20710815  0.83527805  1
  N  N39  1  0.77911217  0.09280949  0.59559895  1
  N  N40  1  0.55699910  0.20657387  0.35294398  1
  N  N41  1  0.43377739  0.08701513  0.09202780  1
  N  N42  1  0.21913496  0.20736766  0.84062903  1
  N  N43  1  0.11292575  0.09248800  0.59115797  1
  N  N44  1  0.88931234  0.20566435  0.34550064  1
  N  N45  1  0.79859652  0.08525672  0.08567559  1
  N  N46  1  0.55580601  0.20593036  0.84360144  1
  N  N47  1  0.43377734  0.11253923  0.59202774  1
  N  N48  1  0.22173614  0.53929414  0.34518483  1
  N  N49  1  0.11292584  0.42791843  0.09115793  1
  N  N50  1  0.88931243  0.53835823  0.84550058  1
  N  N51  1  0.77769171  0.42996993  0.59044956  1
  N  N52  1  0.55701898  0.53669800  0.34022667  1
  N  N53  1  0.43312745  0.44815533  0.08627213  1
  N  N54  1  0.21958820  0.53997436  0.83580180  1
  N  N55  1  0.10948553  0.42796509  0.58981880  1
  N  N56  1  0.88998539  0.53624162  0.33527808  1
  N  N57  1  0.77769175  0.42567128  0.09044963  1
  N  N58  1  0.55701897  0.53961699  0.84022677  1
  N  N59  1  0.44383251  0.42935223  0.59508123  1
  N  N60  1  0.21958803  0.87377186  0.33580179  1
  N  N61  1  0.11145683  0.75960952  0.09031605  1
  N  N62  1  0.89035908  0.86974385  0.84018362  1
  N  N63  1  0.79859624  0.74947962  0.58567566  1
  N  N64  1  0.55580578  0.87159740  0.34360143  1
  N  N65  1  0.44383222  0.76014710  0.09508126  1
  N  N66  1  0.22173589  0.87230414  0.84518486  1
  N  N67  1  0.11145677  0.76226581  0.59031599  1
  N  N68  1  0.89035901  0.87323182  0.34018355  1
  N  N69  1  0.77911196  0.76141118  0.09559889  1
  N  N70  1  0.55699883  0.86976086  0.85294397  1
  N  N71  1  0.43312723  0.75204890  0.58627212  1
