# generated using pymatgen
data_ScAl17N18
_symmetry_space_group_name_H-M   'P 1'
_cell_length_a   9.75022498
_cell_length_b   9.74655231
_cell_length_c   9.26542702
_cell_angle_alpha   90.00001780
_cell_angle_beta   90.01773764
_cell_angle_gamma   60.01596429
_symmetry_Int_Tables_number   1
_chemical_formula_structural   ScAl17N18
_chemical_formula_sum   'Sc2 Al34 N36'
_cell_volume   762.66100176
_cell_formula_units_Z   2
loop_
 _symmetry_equiv_pos_site_id
 _symmetry_equiv_pos_as_xyz
  1  'x, y, z'
loop_
 _atom_site_type_symbol
 _atom_site_label
 _atom_site_symmetry_multiplicity
 _atom_site_fract_x
 _atom_site_fract_y
 _atom_site_fract_z
 _atom_site_occupancy
  Al  Al0  1  0.11203356  0.09309397  0.37668586  1
  Al  Al1  1  0.21767887  0.20564197  0.12647611  1
  Al  Al2  1  0.78538643  0.09127593  0.87007880  1
  Al  Al3  1  0.88996708  0.20665436  0.62302838  1
  Al  Al4  1  0.44019890  0.10097442  0.37453038  1
  Al  Al5  1  0.10960395  0.09595490  0.87593276  1
  Al  Al6  1  0.21767783  0.21001623  0.62647679  1
  Al  Al7  1  0.77877193  0.09372620  0.37989484  1
  Al  Al8  1  0.89275620  0.20443626  0.12896421  1
  Al  Al9  1  0.44019951  0.09215730  0.87452980  1
  Al  Al10  1  0.55448345  0.20907617  0.62672272  1
  Al  Al11  1  0.10960402  0.42777190  0.37593247  1
  Al  Al12  1  0.21959339  0.54263293  0.12920051  1
  Al  Al13  1  0.77799348  0.42677636  0.87577966  1
  Al  Al14  1  0.89275611  0.53614265  0.62896437  1
  Al  Al15  1  0.44479447  0.42847031  0.37998052  1
  Al  Al16  1  0.55534211  0.54057618  0.12621234  1
  Al  Al17  1  0.11203354  0.42820338  0.87668601  1
  Al  Al18  1  0.21991640  0.53994337  0.62275506  1
  Al  Al19  1  0.77799373  0.42856022  0.37577987  1
  Al  Al20  1  0.88996714  0.53671363  0.12302817  1
  Al  Al21  1  0.43951057  0.43559085  0.87075738  1
  Al  Al22  1  0.55534261  0.53741804  0.62621207  1
  Al  Al23  1  0.11114698  0.76282969  0.37661253  1
  Al  Al24  1  0.21991648  0.87347700  0.12275556  1
  Al  Al25  1  0.77877215  0.76083185  0.87989502  1
  Al  Al26  1  0.89377056  0.86878261  0.62629664  1
  Al  Al27  1  0.43951144  0.75822914  0.37075689  1
  Al  Al28  1  0.55448405  0.86977703  0.12672263  1
  Al  Al29  1  0.11114704  0.75935417  0.87661206  1
  Al  Al30  1  0.21959453  0.87110971  0.62920030  1
  Al  Al31  1  0.78538650  0.75666713  0.37007879  1
  Al  Al32  1  0.89377044  0.87078198  0.12629708  1
  Al  Al33  1  0.44479460  0.76006580  0.87998074  1
  Sc  Sc34  1  0.55688654  0.20666735  0.10885844  1
  Sc  Sc35  1  0.55688670  0.86978569  0.60885860  1
  N  N36  1  0.21944179  0.20672838  0.33279589  1
  N  N37  1  0.10966739  0.09582882  0.08232763  1
  N  N38  1  0.89011274  0.20718974  0.82841665  1
  N  N39  1  0.77830737  0.09319960  0.58818329  1
  N  N40  1  0.55711032  0.20673498  0.34152265  1
  N  N41  1  0.43322555  0.08527571  0.08263771  1
  N  N42  1  0.21944214  0.20716856  0.83279688  1
  N  N43  1  0.11290927  0.09259701  0.58354949  1
  N  N44  1  0.88912437  0.20545005  0.33710397  1
  N  N45  1  0.80049533  0.08420413  0.07663013  1
  N  N46  1  0.55552645  0.20579146  0.84153833  1
  N  N47  1  0.43322373  0.11482846  0.58263776  1
  N  N48  1  0.22213953  0.53910288  0.33708641  1
  N  N49  1  0.11290944  0.42782191  0.08354937  1
  N  N50  1  0.88912436  0.53876347  0.83710436  1
  N  N51  1  0.77761905  0.42987469  0.58289459  1
  N  N52  1  0.55693402  0.53624043  0.33242517  1
  N  N53  1  0.43218882  0.45025214  0.07713008  1
  N  N54  1  0.21932306  0.54012847  0.82872177  1
  N  N55  1  0.10966738  0.42783197  0.58232760  1
  N  N56  1  0.89011308  0.53603529  0.32841617  1
  N  N57  1  0.77761831  0.42583305  0.08289449  1
  N  N58  1  0.55693396  0.54016442  0.83242509  1
  N  N59  1  0.44422746  0.42861614  0.58765003  1
  N  N60  1  0.21932377  0.87388709  0.32872245  1
  N  N61  1  0.11135890  0.75974086  0.08277624  1
  N  N62  1  0.89021900  0.86932206  0.83244196  1
  N  N63  1  0.80049543  0.74862649  0.57663005  1
  N  N64  1  0.55552652  0.87202074  0.34153829  1
  N  N65  1  0.44422748  0.76048445  0.08765050  1
  N  N66  1  0.22213989  0.87209620  0.83708608  1
  N  N67  1  0.11135902  0.76222870  0.58277609  1
  N  N68  1  0.89021878  0.87379690  0.33244291  1
  N  N69  1  0.77830813  0.76181946  0.08818334  1
  N  N70  1  0.55711033  0.86949352  0.84152280  1
  N  N71  1  0.43219061  0.75088698  0.57713044  1
