# generated using pymatgen
data_ScAl17N18
_symmetry_space_group_name_H-M   'P 1'
_cell_length_a   9.49904155
_cell_length_b   9.49656069
_cell_length_c   9.99386884
_cell_angle_alpha   89.99999687
_cell_angle_beta   89.97688532
_cell_angle_gamma   60.00859905
_symmetry_Int_Tables_number   1
_chemical_formula_structural   ScAl17N18
_chemical_formula_sum   'Sc2 Al34 N36'
_cell_volume   780.81471700
_cell_formula_units_Z   2
loop_
 _symmetry_equiv_pos_site_id
 _symmetry_equiv_pos_as_xyz
  1  'x, y, z'
loop_
 _atom_site_type_symbol
 _atom_site_label
 _atom_site_symmetry_multiplicity
 _atom_site_fract_x
 _atom_site_fract_y
 _atom_site_fract_z
 _atom_site_occupancy
  Al  Al0  1  0.11067989  0.09487297  0.31388455  1
  Al  Al1  1  0.21813695  0.20548152  0.06357924  1
  Al  Al2  1  0.77882716  0.09401493  0.81037414  1
  Al  Al3  1  0.88964292  0.20613462  0.56449713  1
  Al  Al4  1  0.44087461  0.09236368  0.31312338  1
  Al  Al5  1  0.11119173  0.09406586  0.81393755  1
  Al  Al6  1  0.21813677  0.20971472  0.56357890  1
  Al  Al7  1  0.78399184  0.09145072  0.31744051  1
  Al  Al8  1  0.89290348  0.20442150  0.06357548  1
  Al  Al9  1  0.44087457  0.10009477  0.81312302  1
  Al  Al10  1  0.55440700  0.20912258  0.56164444  1
  Al  Al11  1  0.11119160  0.42807571  0.31393805  1
  Al  Al12  1  0.21942066  0.54291197  0.06337418  1
  Al  Al13  1  0.77788648  0.42772311  0.81442600  1
  Al  Al14  1  0.89290321  0.53600847  0.56357521  1
  Al  Al15  1  0.44076246  0.43427315  0.31721610  1
  Al  Al16  1  0.55490330  0.54162175  0.06394633  1
  Al  Al17  1  0.11067966  0.42778052  0.81388421  1
  Al  Al18  1  0.22069471  0.53956921  0.56503564  1
  Al  Al19  1  0.77788651  0.42772394  0.31442641  1
  Al  Al20  1  0.88964274  0.53755610  0.06449737  1
  Al  Al21  1  0.44427479  0.42856125  0.80997690  1
  Al  Al22  1  0.55490342  0.53680858  0.56394603  1
  Al  Al23  1  0.11115391  0.76047476  0.31367698  1
  Al  Al24  1  0.22069488  0.87306945  0.06503585  1
  Al  Al25  1  0.78399171  0.75789078  0.81744017  1
  Al  Al26  1  0.89364578  0.86951873  0.56386139  1
  Al  Al27  1  0.44427471  0.76049755  0.30997726  1
  Al  Al28  1  0.55440692  0.86980362  0.06164462  1
  Al  Al29  1  0.11115389  0.76170493  0.81367657  1
  Al  Al30  1  0.21942067  0.87100085  0.56337390  1
  Al  Al31  1  0.77882689  0.76049134  0.31037460  1
  Al  Al32  1  0.89364577  0.87016872  0.06386163  1
  Al  Al33  1  0.44076238  0.75829788  0.81721573  1
  Sc  Sc34  1  0.55652559  0.20676267  0.07328399  1
  Sc  Sc35  1  0.55652573  0.87004434  0.57328386  1
  N  N36  1  0.22035139  0.20653221  0.37200328  1
  N  N37  1  0.11080057  0.09481065  0.12214161  1
  N  N38  1  0.88890665  0.20537516  0.87049248  1
  N  N39  1  0.77842416  0.09351444  0.61750074  1
  N  N40  1  0.55539379  0.20567297  0.36406648  1
  N  N41  1  0.43340560  0.08526565  0.12327268  1
  N  N42  1  0.22035137  0.20644994  0.87200337  1
  N  N43  1  0.11192566  0.09356202  0.62141553  1
  N  N44  1  0.88988058  0.20674843  0.37362030  1
  N  N45  1  0.79984221  0.08383515  0.12814386  1
  N  N46  1  0.55681922  0.20649863  0.86080963  1
  N  N47  1  0.43340569  0.11466264  0.62327306  1
  N  N48  1  0.21993978  0.53991887  0.37367446  1
  N  N49  1  0.11192574  0.42784581  0.12141540  1
  N  N50  1  0.88988083  0.53670413  0.87362045  1
  N  N51  1  0.77750447  0.42874427  0.62172210  1
  N  N52  1  0.55645883  0.54024704  0.37245446  1
  N  N53  1  0.43293132  0.44998622  0.12806566  1
  N  N54  1  0.22242174  0.53887050  0.87029462  1
  N  N55  1  0.11080091  0.42772213  0.62214200  1
  N  N56  1  0.88890681  0.53905136  0.37049235  1
  N  N57  1  0.77750457  0.42708453  0.12172188  1
  N  N58  1  0.55645884  0.53662706  0.87245460  1
  N  N59  1  0.44371769  0.42851644  0.61797970  1
  N  N60  1  0.22242158  0.87204099  0.37029452  1
  N  N61  1  0.11137263  0.76080787  0.12208403  1
  N  N62  1  0.88983609  0.87362314  0.87238606  1
  N  N63  1  0.79984234  0.74965620  0.62814427  1
  N  N64  1  0.55681930  0.87001552  0.36081002  1
  N  N65  1  0.44371780  0.76109878  0.11797942  1
  N  N66  1  0.21993954  0.87347466  0.87367457  1
  N  N67  1  0.11137257  0.76115270  0.62208435  1
  N  N68  1  0.88983606  0.86987420  0.37238591  1
  N  N69  1  0.77842432  0.76139482  0.11750054  1
  N  N70  1  0.55539378  0.87226661  0.86406650  1
  N  N71  1  0.43293133  0.75041548  0.62806616  1
