# generated using pymatgen
data_ScAl17N18
_symmetry_space_group_name_H-M   'P 1'
_cell_length_a   9.49909635
_cell_length_b   9.49661410
_cell_length_c   9.99373912
_cell_angle_alpha   90.00004999
_cell_angle_beta   89.97695250
_cell_angle_gamma   60.00850835
_symmetry_Int_Tables_number   1
_chemical_formula_structural   ScAl17N18
_chemical_formula_sum   'Sc2 Al34 N36'
_cell_volume   780.81276501
_cell_formula_units_Z   2
loop_
 _symmetry_equiv_pos_site_id
 _symmetry_equiv_pos_as_xyz
  1  'x, y, z'
loop_
 _atom_site_type_symbol
 _atom_site_label
 _atom_site_symmetry_multiplicity
 _atom_site_fract_x
 _atom_site_fract_y
 _atom_site_fract_z
 _atom_site_occupancy
  Al  Al0  1  0.11068000  0.09487269  0.31786677  1
  Al  Al1  1  0.21813572  0.20548170  0.06756326  1
  Al  Al2  1  0.77882734  0.09401506  0.81436644  1
  Al  Al3  1  0.88964252  0.20613421  0.56847892  1
  Al  Al4  1  0.44087284  0.09236505  0.31711144  1
  Al  Al5  1  0.11119027  0.09406777  0.81792081  1
  Al  Al6  1  0.21813571  0.20971592  0.56756330  1
  Al  Al7  1  0.78399049  0.09145048  0.32142929  1
  Al  Al8  1  0.89290336  0.20442066  0.06756112  1
  Al  Al9  1  0.44087282  0.10009541  0.81711151  1
  Al  Al10  1  0.55440629  0.20912244  0.56563843  1
  Al  Al11  1  0.11119028  0.42807533  0.31792080  1
  Al  Al12  1  0.21941879  0.54291220  0.06736091  1
  Al  Al13  1  0.77788702  0.42772233  0.81840819  1
  Al  Al14  1  0.89290325  0.53600951  0.56756115  1
  Al  Al15  1  0.44076180  0.43427181  0.32120374  1
  Al  Al16  1  0.55490206  0.54162220  0.06793150  1
  Al  Al17  1  0.11067996  0.42778073  0.81786680  1
  Al  Al18  1  0.22069333  0.53956953  0.56901745  1
  Al  Al19  1  0.77788703  0.42772415  0.31840818  1
  Al  Al20  1  0.88964257  0.53755670  0.06847888  1
  Al  Al21  1  0.44427235  0.42856198  0.81396878  1
  Al  Al22  1  0.55490196  0.53680887  0.56793157  1
  Al  Al23  1  0.11115244  0.76047629  0.31766041  1
  Al  Al24  1  0.22069331  0.87307033  0.06901747  1
  Al  Al25  1  0.78399039  0.75789261  0.82142926  1
  Al  Al26  1  0.89364443  0.86951975  0.56784718  1
  Al  Al27  1  0.44427230  0.76049891  0.31396874  1
  Al  Al28  1  0.55440611  0.86980446  0.06563847  1
  Al  Al29  1  0.11115237  0.76170461  0.81766042  1
  Al  Al30  1  0.21941854  0.87100218  0.56736096  1
  Al  Al31  1  0.77882724  0.76049106  0.31436645  1
  Al  Al32  1  0.89364459  0.87016907  0.06784721  1
  Al  Al33  1  0.44076169  0.75829969  0.82120386  1
  Sc  Sc34  1  0.55652510  0.20675985  0.07727290  1
  Sc  Sc35  1  0.55652463  0.87004810  0.57727301  1
  N  N36  1  0.22034947  0.20653259  0.37598693  1
  N  N37  1  0.11080051  0.09480985  0.12612401  1
  N  N38  1  0.88890589  0.20537677  0.87447724  1
  N  N39  1  0.77842413  0.09351597  0.62148862  1
  N  N40  1  0.55539288  0.20567354  0.36805524  1
  N  N41  1  0.43340418  0.08526629  0.12725945  1
  N  N42  1  0.22034942  0.20645092  0.87598677  1
  N  N43  1  0.11192400  0.09356342  0.62539834  1
  N  N44  1  0.88987981  0.20674933  0.37760178  1
  N  N45  1  0.79984163  0.08383569  0.13212999  1
  N  N46  1  0.55681823  0.20649973  0.86479736  1
  N  N47  1  0.43340427  0.11466304  0.62725945  1
  N  N48  1  0.21993927  0.53991944  0.37765561  1
  N  N49  1  0.11192405  0.42784622  0.12539818  1
  N  N50  1  0.88987979  0.53670407  0.87760182  1
  N  N51  1  0.77750308  0.42874440  0.62570427  1
  N  N52  1  0.55645841  0.54024651  0.37643901  1
  N  N53  1  0.43293133  0.44998762  0.13205083  1
  N  N54  1  0.22242039  0.53887162  0.87428051  1
  N  N55  1  0.11080047  0.42772327  0.62612388  1
  N  N56  1  0.88890589  0.53905052  0.37447731  1
  N  N57  1  0.77750314  0.42708617  0.12570424  1
  N  N58  1  0.55645841  0.53662806  0.87643892  1
  N  N59  1  0.44371620  0.42851949  0.62196733  1
  N  N60  1  0.22242029  0.87204121  0.37428058  1
  N  N61  1  0.11137328  0.76080810  0.12606751  1
  N  N62  1  0.88983624  0.87362274  0.87637142  1
  N  N63  1  0.79984148  0.74965677  0.63213012  1
  N  N64  1  0.55681804  0.87001508  0.36479739  1
  N  N65  1  0.44371610  0.76109779  0.12196720  1
  N  N66  1  0.21993902  0.87347455  0.87765575  1
  N  N67  1  0.11137314  0.76115240  0.62606755  1
  N  N68  1  0.88983625  0.86987436  0.37637130  1
  N  N69  1  0.77842402  0.76139389  0.12148864  1
  N  N70  1  0.55539266  0.87226669  0.86805522  1
  N  N71  1  0.43293089  0.75041464  0.63205098  1
