# generated using pymatgen
data_ScAl17N18
_symmetry_space_group_name_H-M   'P 1'
_cell_length_a   9.49901533
_cell_length_b   9.49654481
_cell_length_c   9.99392149
_cell_angle_alpha   89.99998530
_cell_angle_beta   89.97692345
_cell_angle_gamma   60.00862205
_symmetry_Int_Tables_number   1
_chemical_formula_structural   ScAl17N18
_chemical_formula_sum   'Sc2 Al34 N36'
_cell_volume   780.81555038
_cell_formula_units_Z   2
loop_
 _symmetry_equiv_pos_site_id
 _symmetry_equiv_pos_as_xyz
  1  'x, y, z'
loop_
 _atom_site_type_symbol
 _atom_site_label
 _atom_site_symmetry_multiplicity
 _atom_site_fract_x
 _atom_site_fract_y
 _atom_site_fract_z
 _atom_site_occupancy
  Al  Al0  1  0.11068236  0.09487283  0.31005872  1
  Al  Al1  1  0.21813776  0.20548160  0.05975545  1
  Al  Al2  1  0.77883100  0.09401172  0.80656010  1
  Al  Al3  1  0.88964613  0.20613086  0.56067227  1
  Al  Al4  1  0.44087349  0.09236858  0.30930282  1
  Al  Al5  1  0.11119280  0.09406759  0.81011392  1
  Al  Al6  1  0.21813819  0.20971439  0.55975566  1
  Al  Al7  1  0.78399002  0.09144951  0.31362449  1
  Al  Al8  1  0.89290682  0.20441717  0.05975545  1
  Al  Al9  1  0.44087355  0.10009194  0.80930341  1
  Al  Al10  1  0.55440793  0.20911823  0.55783563  1
  Al  Al11  1  0.11119288  0.42807302  0.31011312  1
  Al  Al12  1  0.21941838  0.54291197  0.05955511  1
  Al  Al13  1  0.77789120  0.42771980  0.81060271  1
  Al  Al14  1  0.89290716  0.53600924  0.55975598  1
  Al  Al15  1  0.44076266  0.43426725  0.31339940  1
  Al  Al16  1  0.55490257  0.54162089  0.06012645  1
  Al  Al17  1  0.11068291  0.42777829  0.81005930  1
  Al  Al18  1  0.22069282  0.53956884  0.56121078  1
  Al  Al19  1  0.77789141  0.42772171  0.31060211  1
  Al  Al20  1  0.88964648  0.53755578  0.06067215  1
  Al  Al21  1  0.44427176  0.42856083  0.80616269  1
  Al  Al22  1  0.55490214  0.53680915  0.56012690  1
  Al  Al23  1  0.11115297  0.76047568  0.30985388  1
  Al  Al24  1  0.22069231  0.87307179  0.06121042  1
  Al  Al25  1  0.78399046  0.75789371  0.81362492  1
  Al  Al26  1  0.89364601  0.86951839  0.56004087  1
  Al  Al27  1  0.44427210  0.76050025  0.30616208  1
  Al  Al28  1  0.55440796  0.86980780  0.05783541  1
  Al  Al29  1  0.11115325  0.76170384  0.80985467  1
  Al  Al30  1  0.21941825  0.87100268  0.55955566  1
  Al  Al31  1  0.77883142  0.76049041  0.30655967  1
  Al  Al32  1  0.89364591  0.87016960  0.06004026  1
  Al  Al33  1  0.44076281  0.75830303  0.81340019  1
  Sc  Sc34  1  0.55652658  0.20675706  0.06946007  1
  Sc  Sc35  1  0.55652655  0.87004913  0.56946142  1
  N  N36  1  0.22035162  0.20653150  0.36818228  1
  N  N37  1  0.11080104  0.09480882  0.11831952  1
  N  N38  1  0.88890509  0.20537822  0.86667441  1
  N  N39  1  0.77842682  0.09351601  0.61368516  1
  N  N40  1  0.55539494  0.20567430  0.36025625  1
  N  N41  1  0.43340963  0.08526721  0.11945302  1
  N  N42  1  0.22035157  0.20644947  0.86818178  1
  N  N43  1  0.11192432  0.09356210  0.61759362  1
  N  N44  1  0.88987909  0.20675115  0.36979774  1
  N  N45  1  0.79984131  0.08383681  0.12432693  1
  N  N46  1  0.55681991  0.20650079  0.85698622  1
  N  N47  1  0.43340909  0.11465614  0.61945242  1
  N  N48  1  0.21994333  0.53991894  0.36985185  1
  N  N49  1  0.11192419  0.42784682  0.11759428  1
  N  N50  1  0.88987871  0.53670350  0.86979778  1
  N  N51  1  0.77750275  0.42874389  0.61789950  1
  N  N52  1  0.55646028  0.54024642  0.36863664  1
  N  N53  1  0.43293533  0.44998859  0.12424798  1
  N  N54  1  0.22242423  0.53887084  0.86647731  1
  N  N55  1  0.11080045  0.42772324  0.61831886  1
  N  N56  1  0.88890490  0.53905019  0.36667463  1
  N  N57  1  0.77750254  0.42708720  0.11790004  1
  N  N58  1  0.55646042  0.53662744  0.86863617  1
  N  N59  1  0.44371922  0.42852124  0.61416373  1
  N  N60  1  0.22242441  0.87203834  0.36647750  1
  N  N61  1  0.11137704  0.76080605  0.11826335  1
  N  N62  1  0.88983755  0.87362197  0.86856796  1
  N  N63  1  0.79984116  0.74965466  0.62432652  1
  N  N64  1  0.55681955  0.87001279  0.35698650  1
  N  N65  1  0.44371899  0.76109390  0.11416500  1
  N  N66  1  0.21994362  0.87347129  0.86985151  1
  N  N67  1  0.11137737  0.76115059  0.61826242  1
  N  N68  1  0.88983773  0.86987342  0.36856760  1
  N  N69  1  0.77842631  0.76139064  0.11368578  1
  N  N70  1  0.55539479  0.87226389  0.86025608  1
  N  N71  1  0.43293562  0.75041007  0.62424694  1
