# generated using pymatgen
data_ScAl17N18
_symmetry_space_group_name_H-M   'P 1'
_cell_length_a   9.84670450
_cell_length_b   9.84204514
_cell_length_c   8.96587912
_cell_angle_alpha   89.99999996
_cell_angle_beta   90.01602437
_cell_angle_gamma   60.01716034
_symmetry_Int_Tables_number   1
_chemical_formula_structural   ScAl17N18
_chemical_formula_sum   'Sc2 Al34 N36'
_cell_volume   752.61837608
_cell_formula_units_Z   2
loop_
 _symmetry_equiv_pos_site_id
 _symmetry_equiv_pos_as_xyz
  1  'x, y, z'
loop_
 _atom_site_type_symbol
 _atom_site_label
 _atom_site_symmetry_multiplicity
 _atom_site_fract_x
 _atom_site_fract_y
 _atom_site_fract_z
 _atom_site_occupancy
  Al  Al0  1  0.11218943  0.09292705  0.37214077  1
  Al  Al1  1  0.21755279  0.20586383  0.12165472  1
  Al  Al2  1  0.78444913  0.09187711  0.86427983  1
  Al  Al3  1  0.89005458  0.20671477  0.61791533  1
  Al  Al4  1  0.44015414  0.09931123  0.36869690  1
  Al  Al5  1  0.10939773  0.09610890  0.87107869  1
  Al  Al6  1  0.21755189  0.20991807  0.62165502  1
  Al  Al7  1  0.77980695  0.09311564  0.37559260  1
  Al  Al8  1  0.89259741  0.20462304  0.12471846  1
  Al  Al9  1  0.44015419  0.09386606  0.86869737  1
  Al  Al10  1  0.55462231  0.20890346  0.61845941  1
  Al  Al11  1  0.10939759  0.42782547  0.37107842  1
  Al  Al12  1  0.21958753  0.54243775  0.12492395  1
  Al  Al13  1  0.77799430  0.42655519  0.87111965  1
  Al  Al14  1  0.89259692  0.53611400  0.62471861  1
  Al  Al15  1  0.44426329  0.42952028  0.37544324  1
  Al  Al16  1  0.55553110  0.54027388  0.12147433  1
  Al  Al17  1  0.11218923  0.42821568  0.87214091  1
  Al  Al18  1  0.21976770  0.54003536  0.61774758  1
  Al  Al19  1  0.77799433  0.42878313  0.37112008  1
  Al  Al20  1  0.89005446  0.53656600  0.11791525  1
  Al  Al21  1  0.43994008  0.43453694  0.86502931  1
  Al  Al22  1  0.55553080  0.53753039  0.62147406  1
  Al  Al23  1  0.11119417  0.76293200  0.37190280  1
  Al  Al24  1  0.21976722  0.87353262  0.11774775  1
  Al  Al25  1  0.77980670  0.76040966  0.87559313  1
  Al  Al26  1  0.89370777  0.86880024  0.62158784  1
  Al  Al27  1  0.43994021  0.75885520  0.36502999  1
  Al  Al28  1  0.55462270  0.86980944  0.11845948  1
  Al  Al29  1  0.11119422  0.75920641  0.87190235  1
  Al  Al30  1  0.21958879  0.87130871  0.62492383  1
  Al  Al31  1  0.78444861  0.75700613  0.36427935  1
  Al  Al32  1  0.89370693  0.87082681  0.12158792  1
  Al  Al33  1  0.44426298  0.75954861  0.87544255  1
  Sc  Sc34  1  0.55704113  0.20666491  0.10660026  1
  Sc  Sc35  1  0.55703944  0.86962695  0.60660012  1
  N  N36  1  0.21920313  0.20679391  0.33768730  1
  N  N37  1  0.10947213  0.09594591  0.08698303  1
  N  N38  1  0.89004921  0.20718699  0.83251045  1
  N  N39  1  0.77889069  0.09288170  0.59309134  1
  N  N40  1  0.55707447  0.20664878  0.34913501  1
  N  N41  1  0.43355455  0.08652899  0.08856499  1
  N  N42  1  0.21920331  0.20733876  0.83768737  1
  N  N43  1  0.11299195  0.09245048  0.58835019  1
  N  N44  1  0.88924080  0.20556578  0.34260384  1
  N  N45  1  0.79927828  0.08492660  0.08209974  1
  N  N46  1  0.55568638  0.20586605  0.84291654  1
  N  N47  1  0.43355416  0.11324807  0.58856522  1
  N  N48  1  0.22190929  0.53922069  0.34238757  1
  N  N49  1  0.11299220  0.42788881  0.08835010  1
  N  N50  1  0.88924096  0.53852911  0.84260387  1
  N  N51  1  0.77766602  0.43001826  0.58762420  1
  N  N52  1  0.55700926  0.53646397  0.33730445  1
  N  N53  1  0.43275563  0.44889212  0.08268311  1
  N  N54  1  0.21942473  0.54004828  0.83296699  1
  N  N55  1  0.10947235  0.42791311  0.58698299  1
  N  N56  1  0.89004954  0.53609944  0.33251035  1
  N  N57  1  0.77766557  0.42564690  0.08762422  1
  N  N58  1  0.55700925  0.53986188  0.83730492  1
  N  N59  1  0.44397139  0.42915775  0.59254103  1
  N  N60  1  0.21942467  0.87386262  0.33296697  1
  N  N61  1  0.11142061  0.75958009  0.08750401  1
  N  N62  1  0.89032013  0.86950803  0.83728737  1
  N  N63  1  0.79927837  0.74912637  0.58209988  1
  N  N64  1  0.55568631  0.87178292  0.34291664  1
  N  N65  1  0.44397116  0.76020115  0.09254137  1
  N  N66  1  0.22190913  0.87220564  0.84238764  1
  N  N67  1  0.11142003  0.76233052  0.58750384  1
  N  N68  1  0.89032010  0.87350746  0.33728789  1
  N  N69  1  0.77889088  0.76155835  0.09309123  1
  N  N70  1  0.55707445  0.86961215  0.84913501  1
  N  N71  1  0.43275622  0.75168337  0.58268310  1
