# generated using pymatgen
data_ScAl17N18
_symmetry_space_group_name_H-M   'P 1'
_cell_length_a   9.49907003
_cell_length_b   9.49663568
_cell_length_c   9.99372963
_cell_angle_alpha   90.00001675
_cell_angle_beta   90.02295826
_cell_angle_gamma   60.00860563
_symmetry_Int_Tables_number   1
_chemical_formula_structural   ScAl17N18
_chemical_formula_sum   'Sc2 Al34 N36'
_cell_volume   780.81240076
_cell_formula_units_Z   2
loop_
 _symmetry_equiv_pos_site_id
 _symmetry_equiv_pos_as_xyz
  1  'x, y, z'
loop_
 _atom_site_type_symbol
 _atom_site_label
 _atom_site_symmetry_multiplicity
 _atom_site_fract_x
 _atom_site_fract_y
 _atom_site_fract_z
 _atom_site_occupancy
  Al  Al0  1  0.11118729  0.09406931  0.39055611  1
  Al  Al1  1  0.21813255  0.20548327  0.14091352  1
  Al  Al2  1  0.78398724  0.09145199  0.88704828  1
  Al  Al3  1  0.88963949  0.20613546  0.63999823  1
  Al  Al4  1  0.44086951  0.10009753  0.39136557  1
  Al  Al5  1  0.11067699  0.09487423  0.89061004  1
  Al  Al6  1  0.21813243  0.20971768  0.64091357  1
  Al  Al7  1  0.77882365  0.09401684  0.39411108  1
  Al  Al8  1  0.89290012  0.20442218  0.14091581  1
  Al  Al9  1  0.44086958  0.09236632  0.89136562  1
  Al  Al10  1  0.55440272  0.20912434  0.64283990  1
  Al  Al11  1  0.11067697  0.42778215  0.39061001  1
  Al  Al12  1  0.21941507  0.54291454  0.14111614  1
  Al  Al13  1  0.77788391  0.42772564  0.89006881  1
  Al  Al14  1  0.89290011  0.53601090  0.64091580  1
  Al  Al15  1  0.44426919  0.42856340  0.39450897  1
  Al  Al16  1  0.55489874  0.54162420  0.14054583  1
  Al  Al17  1  0.11118733  0.42807674  0.89055611  1
  Al  Al18  1  0.22068992  0.53957127  0.63945986  1
  Al  Al19  1  0.77788391  0.42772367  0.39006880  1
  Al  Al20  1  0.88963953  0.53755818  0.13999822  1
  Al  Al21  1  0.44075825  0.43427400  0.88727381  1
  Al  Al22  1  0.55489882  0.53681044  0.64054580  1
  Al  Al23  1  0.11114915  0.76170618  0.39081661  1
  Al  Al24  1  0.22068993  0.87307224  0.13945993  1
  Al  Al25  1  0.77882373  0.76049267  0.89411114  1
  Al  Al26  1  0.89364096  0.86952131  0.64063013  1
  Al  Al27  1  0.44075835  0.75830109  0.38727382  1
  Al  Al28  1  0.55440281  0.86980635  0.14283992  1
  Al  Al29  1  0.11114915  0.76047803  0.89081656  1
  Al  Al30  1  0.21941519  0.87100378  0.64111610  1
  Al  Al31  1  0.78398724  0.75789395  0.38704832  1
  Al  Al32  1  0.89364094  0.87017095  0.14063017  1
  Al  Al33  1  0.44426919  0.76050076  0.89450903  1
  Sc  Sc34  1  0.55652084  0.20676267  0.13120361  1
  Sc  Sc35  1  0.55652088  0.87005021  0.63120381  1
  N  N36  1  0.22034611  0.20645292  0.33249056  1
  N  N37  1  0.11079714  0.09481111  0.08235358  1
  N  N38  1  0.88987593  0.20675149  0.83087599  1
  N  N39  1  0.77842093  0.09351703  0.58698941  1
  N  N40  1  0.55681490  0.20650206  0.34367991  1
  N  N41  1  0.43340176  0.08526647  0.08121818  1
  N  N42  1  0.22034617  0.20653460  0.83249067  1
  N  N43  1  0.11192108  0.09356434  0.58307927  1
  N  N44  1  0.88890209  0.20537879  0.33400025  1
  N  N45  1  0.79983839  0.08383684  0.07634814  1
  N  N46  1  0.55538942  0.20567584  0.84042360  1
  N  N47  1  0.43340156  0.11466499  0.58121811  1
  N  N48  1  0.22241706  0.53887373  0.33419709  1
  N  N49  1  0.11192109  0.42784756  0.08307929  1
  N  N50  1  0.88890211  0.53905265  0.83400030  1
  N  N51  1  0.77750033  0.42874525  0.58277338  1
  N  N52  1  0.55645533  0.53662977  0.33203901  1
  N  N53  1  0.43292816  0.44998993  0.07642691  1
  N  N54  1  0.21993567  0.53992178  0.83082209  1
  N  N55  1  0.11079710  0.42772480  0.58235357  1
  N  N56  1  0.88987594  0.53670609  0.33087594  1
  N  N57  1  0.77750027  0.42708721  0.08277337  1
  N  N58  1  0.55645532  0.54024862  0.83203901  1
  N  N59  1  0.44371371  0.42852047  0.58651100  1
  N  N60  1  0.21993572  0.87347626  0.33082215  1
  N  N61  1  0.11136974  0.76080980  0.08241025  1
  N  N62  1  0.88983233  0.86987641  0.83210661  1
  N  N63  1  0.79983832  0.74965754  0.57634814  1
  N  N64  1  0.55538941  0.87226848  0.34042356  1
  N  N65  1  0.44371370  0.76109893  0.08651100  1
  N  N66  1  0.22241711  0.87204290  0.83419705  1
  N  N67  1  0.11136979  0.76115352  0.58241028  1
  N  N68  1  0.88983230  0.87362481  0.33210663  1
  N  N69  1  0.77842102  0.76139474  0.08698945  1
  N  N70  1  0.55681496  0.87001669  0.84368007  1
  N  N71  1  0.43292841  0.75041499  0.57642698  1
