# generated using pymatgen
data_ScAl17N18
_symmetry_space_group_name_H-M   'P 1'
_cell_length_a   9.74979966
_cell_length_b   9.74606743
_cell_length_c   9.26722776
_cell_angle_alpha   90.00002603
_cell_angle_beta   89.98225951
_cell_angle_gamma   60.01586264
_symmetry_Int_Tables_number   1
_chemical_formula_structural   ScAl17N18
_chemical_formula_sum   'Sc2 Al34 N36'
_cell_volume   762.73722304
_cell_formula_units_Z   2
loop_
 _symmetry_equiv_pos_site_id
 _symmetry_equiv_pos_as_xyz
  1  'x, y, z'
loop_
 _atom_site_type_symbol
 _atom_site_label
 _atom_site_symmetry_multiplicity
 _atom_site_fract_x
 _atom_site_fract_y
 _atom_site_fract_z
 _atom_site_occupancy
  Al  Al0  1  0.10960597  0.09595316  0.33252181  1
  Al  Al1  1  0.21768083  0.20563895  0.08197743  1
  Al  Al2  1  0.77876376  0.09373096  0.82857536  1
  Al  Al3  1  0.88996505  0.20665245  0.58542854  1
  Al  Al4  1  0.44019954  0.09214352  0.33391812  1
  Al  Al5  1  0.11203223  0.09309567  0.83177078  1
  Al  Al6  1  0.21767972  0.21001719  0.58197650  1
  Al  Al7  1  0.78539415  0.09127103  0.33836840  1
  Al  Al8  1  0.89275841  0.20443476  0.07950111  1
  Al  Al9  1  0.44019885  0.10098842  0.83391733  1
  Al  Al10  1  0.55448280  0.20907781  0.58170604  1
  Al  Al11  1  0.11203215  0.42820313  0.33177055  1
  Al  Al12  1  0.21959289  0.54263531  0.07926516  1
  Al  Al13  1  0.77799385  0.42855831  0.83267593  1
  Al  Al14  1  0.89275826  0.53614149  0.57950085  1
  Al  Al15  1  0.43950727  0.43559945  0.33769443  1
  Al  Al16  1  0.55533973  0.54058078  0.08224454  1
  Al  Al17  1  0.10960597  0.42777156  0.83252215  1
  Al  Al18  1  0.21991925  0.53994168  0.58570319  1
  Al  Al19  1  0.77799352  0.42677786  0.33267623  1
  Al  Al20  1  0.88996501  0.53671714  0.08542888  1
  Al  Al21  1  0.44479833  0.42846226  0.82848643  1
  Al  Al22  1  0.55534029  0.53741590  0.58224492  1
  Al  Al23  1  0.11114692  0.75935608  0.33184412  1
  Al  Al24  1  0.21991946  0.87347587  0.08570259  1
  Al  Al25  1  0.78539429  0.75666405  0.83836840  1
  Al  Al26  1  0.89377077  0.86878472  0.58215982  1
  Al  Al27  1  0.44479853  0.76007033  0.32848623  1
  Al  Al28  1  0.55448346  0.86977612  0.08170621  1
  Al  Al29  1  0.11114690  0.76282824  0.83184357  1
  Al  Al30  1  0.21959418  0.87110792  0.57926553  1
  Al  Al31  1  0.77876404  0.76083511  0.32857520  1
  Al  Al32  1  0.89377066  0.87077940  0.08215926  1
  Al  Al33  1  0.43950826  0.75822417  0.83769501  1
  Sc  Sc34  1  0.55688436  0.20666672  0.09961316  1
  Sc  Sc35  1  0.55688371  0.86978850  0.59961295  1
  N  N36  1  0.21944482  0.20716642  0.37572443  1
  N  N37  1  0.10966970  0.09582780  0.12619371  1
  N  N38  1  0.88912457  0.20544953  0.87142787  1
  N  N39  1  0.77830104  0.09320284  0.62034960  1
  N  N40  1  0.55552618  0.20579044  0.36696422  1
  N  N41  1  0.43322292  0.08526407  0.12589373  1
  N  N42  1  0.21944449  0.20672740  0.87572582  1
  N  N43  1  0.11290835  0.09259900  0.62497279  1
  N  N44  1  0.89011312  0.20718829  0.38010116  1
  N  N45  1  0.80050427  0.08419792  0.13189442  1
  N  N46  1  0.55710942  0.20673541  0.86702930  1
  N  N47  1  0.43322106  0.11484280  0.62589361  1
  N  N48  1  0.21932304  0.54012885  0.37979795  1
  N  N49  1  0.11290844  0.42782092  0.12497283  1
  N  N50  1  0.89011323  0.53603595  0.88010182  1
  N  N51  1  0.77761809  0.42987304  0.62562766  1
  N  N52  1  0.55693360  0.54016574  0.37609935  1
  N  N53  1  0.43218468  0.45026323  0.13139858  1
  N  N54  1  0.22214079  0.53910213  0.87144379  1
  N  N55  1  0.10966957  0.42783072  0.62619370  1
  N  N56  1  0.88912437  0.53876343  0.37142728  1
  N  N57  1  0.77761734  0.42583527  0.12562784  1
  N  N58  1  0.55693369  0.53623986  0.87609876  1
  N  N59  1  0.44423042  0.42861059  0.62088042  1
  N  N60  1  0.22214140  0.87209571  0.37144448  1
  N  N61  1  0.11135763  0.75974339  0.12574628  1
  N  N62  1  0.89021859  0.87379624  0.87608048  1
  N  N63  1  0.80050437  0.74862365  0.63189451  1
  N  N64  1  0.55710942  0.86949406  0.36702911  1
  N  N65  1  0.44423048  0.76048782  0.12088008  1
  N  N66  1  0.21932407  0.87388673  0.87979707  1
  N  N67  1  0.11135813  0.76222797  0.62574637  1
  N  N68  1  0.89021881  0.86932270  0.37608135  1
  N  N69  1  0.77830171  0.76182262  0.12034945  1
  N  N70  1  0.55552617  0.87202219  0.86696425  1
  N  N71  1  0.43218630  0.75088035  0.63139821  1
