# generated using pymatgen
data_ScAl17N18
_symmetry_space_group_name_H-M   'P 1'
_cell_length_a   9.84589176
_cell_length_b   9.84122847
_cell_length_c   8.96840921
_cell_angle_alpha   89.99999942
_cell_angle_beta   89.98393510
_cell_angle_gamma   60.01731324
_symmetry_Int_Tables_number   1
_chemical_formula_structural   ScAl17N18
_chemical_formula_sum   'Sc2 Al34 N36'
_cell_volume   752.70731550
_cell_formula_units_Z   2
loop_
 _symmetry_equiv_pos_site_id
 _symmetry_equiv_pos_as_xyz
  1  'x, y, z'
loop_
 _atom_site_type_symbol
 _atom_site_label
 _atom_site_symmetry_multiplicity
 _atom_site_fract_x
 _atom_site_fract_y
 _atom_site_fract_z
 _atom_site_occupancy
  Al  Al0  1  0.10939644  0.09611153  0.33736371  1
  Al  Al1  1  0.21755369  0.20586202  0.08678315  1
  Al  Al2  1  0.77979624  0.09311977  0.83285920  1
  Al  Al3  1  0.89005378  0.20671360  0.59053842  1
  Al  Al4  1  0.44015389  0.09385115  0.33974027  1
  Al  Al5  1  0.11219215  0.09292513  0.83629895  1
  Al  Al6  1  0.21755326  0.20991939  0.58678270  1
  Al  Al7  1  0.78445898  0.09187259  0.34415848  1
  Al  Al8  1  0.89259976  0.20462143  0.08372477  1
  Al  Al9  1  0.44015367  0.09932698  0.83973971  1
  Al  Al10  1  0.55462206  0.20890352  0.58996051  1
  Al  Al11  1  0.11219220  0.42821489  0.33629882  1
  Al  Al12  1  0.21958898  0.54243871  0.08351947  1
  Al  Al13  1  0.77799432  0.42878446  0.83732187  1
  Al  Al14  1  0.89259981  0.53611316  0.58372464  1
  Al  Al15  1  0.43993323  0.43454763  0.34341308  1
  Al  Al16  1  0.55552877  0.54027510  0.08696622  1
  Al  Al17  1  0.10939651  0.42782406  0.83736388  1
  Al  Al18  1  0.21976778  0.54003431  0.59070671  1
  Al  Al19  1  0.77799415  0.42655319  0.33732197  1
  Al  Al20  1  0.89005380  0.53656700  0.09053856  1
  Al  Al21  1  0.44427002  0.42950963  0.83300477  1
  Al  Al22  1  0.55552890  0.53753087  0.58696642  1
  Al  Al23  1  0.11119429  0.75920350  0.33653812  1
  Al  Al24  1  0.21976776  0.87353300  0.09070645  1
  Al  Al25  1  0.78445901  0.75700001  0.84415854  1
  Al  Al26  1  0.89370840  0.86880030  0.58685213  1
  Al  Al27  1  0.44427004  0.75955218  0.33300464  1
  Al  Al28  1  0.55462227  0.86980927  0.08996060  1
  Al  Al29  1  0.11119428  0.76293441  0.83653780  1
  Al  Al30  1  0.21958953  0.87130707  0.58351969  1
  Al  Al31  1  0.77979636  0.76041578  0.33285910  1
  Al  Al32  1  0.89370837  0.87082576  0.08685189  1
  Al  Al33  1  0.43993356  0.75885102  0.84341341  1
  Sc  Sc34  1  0.55703635  0.20666845  0.10187960  1
  Sc  Sc35  1  0.55703626  0.86963132  0.60187951  1
  N  N36  1  0.21920429  0.20733912  0.37084885  1
  N  N37  1  0.10947052  0.09594808  0.12155406  1
  N  N38  1  0.88924086  0.20556459  0.86593217  1
  N  N39  1  0.77888558  0.09288232  0.61544784  1
  N  N40  1  0.55568608  0.20586503  0.36558621  1
  N  N41  1  0.43355092  0.08651906  0.11998289  1
  N  N42  1  0.21920424  0.20679262  0.87084951  1
  N  N43  1  0.11299387  0.09244904  0.62018350  1
  N  N44  1  0.89004927  0.20718761  0.37602844  1
  N  N45  1  0.79929159  0.08491962  0.12644407  1
  N  N46  1  0.55707520  0.20664989  0.85942723  1
  N  N47  1  0.43355030  0.11326109  0.61998267  1
  N  N48  1  0.21942220  0.54004956  0.37557328  1
  N  N49  1  0.11299399  0.42788797  0.12018354  1
  N  N50  1  0.89004943  0.53609871  0.87602872  1
  N  N51  1  0.77766483  0.43002047  0.62091129  1
  N  N52  1  0.55700958  0.53986503  0.37123285  1
  N  N53  1  0.43274881  0.44890552  0.12586530  1
  N  N54  1  0.22191141  0.53922053  0.86614685  1
  N  N55  1  0.10947053  0.42791227  0.62155405  1
  N  N56  1  0.88924088  0.53853015  0.36593196  1
  N  N57  1  0.77766454  0.42564509  0.12091140  1
  N  N58  1  0.55700964  0.53646128  0.87123269  1
  N  N59  1  0.44397505  0.42915371  0.61599539  1
  N  N60  1  0.22191164  0.87220394  0.36614714  1
  N  N61  1  0.11141862  0.75957984  0.12103134  1
  N  N62  1  0.89032004  0.87350925  0.87124851  1
  N  N63  1  0.79929162  0.74911875  0.62644413  1
  N  N64  1  0.55707528  0.86961055  0.35942715  1
  N  N65  1  0.44397502  0.76020201  0.11599517  1
  N  N66  1  0.21942255  0.87386418  0.87557291  1
  N  N67  1  0.11141876  0.76233259  0.62103137  1
  N  N68  1  0.89032014  0.86950625  0.37124899  1
  N  N69  1  0.77888583  0.76156237  0.11544782  1
  N  N70  1  0.55568613  0.87178467  0.86558625  1
  N  N71  1  0.43274952  0.75167620  0.62586526  1
