# generated using pymatgen
data_Sc5Al13N18
_symmetry_space_group_name_H-M   'P 1'
_cell_length_a   9.90256058
_cell_length_b   9.89818160
_cell_length_c   10.11243953
_cell_angle_alpha   89.46771635
_cell_angle_beta   89.52390704
_cell_angle_gamma   60.17353808
_symmetry_Int_Tables_number   1
_chemical_formula_structural   Sc5Al13N18
_chemical_formula_sum   'Sc10 Al26 N36'
_cell_volume   859.85182737
_cell_formula_units_Z   2
loop_
 _symmetry_equiv_pos_site_id
 _symmetry_equiv_pos_as_xyz
  1  'x, y, z'
loop_
 _atom_site_type_symbol
 _atom_site_label
 _atom_site_symmetry_multiplicity
 _atom_site_fract_x
 _atom_site_fract_y
 _atom_site_fract_z
 _atom_site_occupancy
  Sc  Sc0  1  0.09390877  0.10477495  0.36917200  1
  Sc  Sc1  1  0.45428348  0.09656641  0.33338256  1
  Sc  Sc2  1  0.10399405  0.10001453  0.88126276  1
  Sc  Sc3  1  0.21924758  0.21495245  0.61530256  1
  Sc  Sc4  1  0.45560086  0.09299426  0.83361598  1
  Sc  Sc5  1  0.88247882  0.54178361  0.61368238  1
  Sc  Sc6  1  0.10483503  0.75129320  0.36108675  1
  Sc  Sc7  1  0.45640110  0.74856875  0.36196715  1
  Sc  Sc8  1  0.21678924  0.86776159  0.62361196  1
  Sc  Sc9  1  0.45365898  0.75017942  0.86455882  1
  Al  Al10  1  0.21765390  0.21305487  0.13361549  1
  Al  Al11  1  0.77862416  0.09062759  0.82199279  1
  Al  Al12  1  0.87557249  0.21308297  0.63649376  1
  Al  Al13  1  0.56113751  0.20388462  0.06610174  1
  Al  Al14  1  0.76810662  0.09925465  0.31379720  1
  Al  Al15  1  0.88156772  0.21275398  0.12937293  1
  Al  Al16  1  0.56623574  0.20447256  0.57098632  1
  Al  Al17  1  0.11222323  0.43322057  0.37686564  1
  Al  Al18  1  0.22981841  0.52925243  0.12923163  1
  Al  Al19  1  0.77840631  0.42794690  0.88471674  1
  Al  Al20  1  0.44447265  0.42913117  0.38483512  1
  Al  Al21  1  0.55787215  0.53036175  0.13090817  1
  Al  Al22  1  0.10542592  0.43544529  0.88541642  1
  Al  Al23  1  0.21965116  0.54349953  0.63594389  1
  Al  Al24  1  0.77015089  0.42173732  0.38019284  1
  Al  Al25  1  0.89028031  0.53440671  0.13443676  1
  Al  Al26  1  0.44540539  0.42959048  0.88127885  1
  Al  Al27  1  0.55814121  0.52797166  0.63481593  1
  Al  Al28  1  0.22421119  0.87007356  0.13370772  1
  Al  Al29  1  0.78775018  0.76249730  0.82289096  1
  Al  Al30  1  0.87613867  0.88325297  0.56726092  1
  Al  Al31  1  0.56529566  0.86840047  0.07392730  1
  Al  Al32  1  0.11342633  0.75363364  0.89033845  1
  Al  Al33  1  0.77935065  0.76441940  0.31892456  1
  Al  Al34  1  0.88258880  0.87476391  0.07147580  1
  Al  Al35  1  0.56911412  0.87070277  0.57236044  1
  N  N36  1  0.21084391  0.22527728  0.32669088  1
  N  N37  1  0.10865154  0.09678051  0.09682247  1
  N  N38  1  0.87189987  0.21858024  0.82916963  1
  N  N39  1  0.77584520  0.09192029  0.63065409  1
  N  N40  1  0.56933218  0.21374327  0.38205106  1
  N  N41  1  0.44631546  0.09503551  0.11043126  1
  N  N42  1  0.21196151  0.22809855  0.82705742  1
  N  N43  1  0.08483592  0.10806129  0.58232917  1
  N  N44  1  0.86506333  0.22036155  0.31566109  1
  N  N45  1  0.77425190  0.09115102  0.12128597  1
  N  N46  1  0.57097558  0.20994180  0.87783594  1
  N  N47  1  0.46438952  0.08742082  0.61058860  1
  N  N48  1  0.24012569  0.51263017  0.31480774  1
  N  N49  1  0.10829236  0.43035762  0.07728012  1
  N  N50  1  0.89045299  0.53674139  0.83260093  1
  N  N51  1  0.76302600  0.41648036  0.56739863  1
  N  N52  1  0.56425376  0.51468185  0.31740008  1
  N  N53  1  0.44298855  0.43160653  0.07263746  1
  N  N54  1  0.22199340  0.53931801  0.83027637  1
  N  N55  1  0.11659317  0.44622252  0.56253483  1
  N  N56  1  0.88897016  0.53507942  0.33399527  1
  N  N57  1  0.77719938  0.43042126  0.07517981  1
  N  N58  1  0.56911638  0.51447665  0.82333872  1
  N  N59  1  0.43629089  0.43689608  0.57992985  1
  N  N60  1  0.22146168  0.87063405  0.32526510  1
  N  N61  1  0.11368764  0.75617387  0.09030339  1
  N  N62  1  0.88996856  0.87305590  0.88156718  1
  N  N63  1  0.77200423  0.78361539  0.63462121  1
  N  N64  1  0.57975324  0.86169921  0.38347766  1
  N  N65  1  0.44812563  0.75768476  0.09933263  1
  N  N66  1  0.21256649  0.86230020  0.83426647  1
  N  N67  1  0.09800248  0.75235801  0.57587040  1
  N  N68  1  0.86114213  0.89114499  0.37515067  1
  N  N69  1  0.78050398  0.76185296  0.12965264  1
  N  N70  1  0.58465514  0.85915225  0.88791560  1
  N  N71  1  0.46692668  0.74947388  0.60123231  1
