# generated using pymatgen
data_Sc5Al13N18
_symmetry_space_group_name_H-M   'P 1'
_cell_length_a   9.83600055
_cell_length_b   9.84300463
_cell_length_c   10.29852614
_cell_angle_alpha   89.42921853
_cell_angle_beta   89.51322109
_cell_angle_gamma   60.23547631
_symmetry_Int_Tables_number   1
_chemical_formula_structural   Sc5Al13N18
_chemical_formula_sum   'Sc10 Al26 N36'
_cell_volume   865.47071217
_cell_formula_units_Z   2
loop_
 _symmetry_equiv_pos_site_id
 _symmetry_equiv_pos_as_xyz
  1  'x, y, z'
loop_
 _atom_site_type_symbol
 _atom_site_label
 _atom_site_symmetry_multiplicity
 _atom_site_fract_x
 _atom_site_fract_y
 _atom_site_fract_z
 _atom_site_occupancy
  Sc  Sc0  1  0.09616892  0.10191644  0.36987828  1
  Sc  Sc1  1  0.45424916  0.09592287  0.32757388  1
  Sc  Sc2  1  0.10302881  0.10076944  0.88668442  1
  Sc  Sc3  1  0.21785798  0.21491428  0.61855827  1
  Sc  Sc4  1  0.45644677  0.09262015  0.83160474  1
  Sc  Sc5  1  0.88281251  0.54152567  0.61820456  1
  Sc  Sc6  1  0.10677578  0.75012697  0.36536545  1
  Sc  Sc7  1  0.45478750  0.74673081  0.37529681  1
  Sc  Sc8  1  0.21601806  0.86877292  0.63097498  1
  Sc  Sc9  1  0.45219634  0.74842920  0.87608556  1
  Al  Al10  1  0.21631635  0.21400338  0.13379848  1
  Al  Al11  1  0.77907799  0.09111021  0.81941853  1
  Al  Al12  1  0.87663245  0.21323441  0.63550749  1
  Al  Al13  1  0.56197293  0.20375594  0.06458984  1
  Al  Al14  1  0.76855902  0.09837794  0.31371945  1
  Al  Al15  1  0.88164994  0.21352634  0.13281850  1
  Al  Al16  1  0.56573858  0.20377807  0.56912268  1
  Al  Al17  1  0.11167584  0.43234577  0.37687479  1
  Al  Al18  1  0.22953944  0.53011411  0.13025598  1
  Al  Al19  1  0.77827148  0.42770530  0.88487499  1
  Al  Al20  1  0.44505746  0.42821374  0.38496979  1
  Al  Al21  1  0.55737008  0.53192649  0.13361053  1
  Al  Al22  1  0.10594741  0.43550989  0.88635331  1
  Al  Al23  1  0.22034777  0.54262927  0.63558635  1
  Al  Al24  1  0.77136282  0.42230136  0.38074862  1
  Al  Al25  1  0.89025221  0.53468493  0.13466805  1
  Al  Al26  1  0.44591956  0.42982797  0.88249385  1
  Al  Al27  1  0.55762652  0.52853898  0.63541483  1
  Al  Al28  1  0.22513886  0.86872326  0.13472890  1
  Al  Al29  1  0.78662872  0.76387024  0.82244986  1
  Al  Al30  1  0.87583525  0.88337544  0.56642956  1
  Al  Al31  1  0.56522753  0.86936903  0.07292481  1
  Al  Al32  1  0.11366587  0.75292604  0.89203069  1
  Al  Al33  1  0.77871904  0.76444155  0.31755503  1
  Al  Al34  1  0.88265484  0.87540224  0.07024830  1
  Al  Al35  1  0.56853249  0.87240288  0.57137602  1
  N  N36  1  0.21001721  0.22538262  0.32255977  1
  N  N37  1  0.10795981  0.09696522  0.09681288  1
  N  N38  1  0.87337470  0.21939501  0.82462551  1
  N  N39  1  0.77544455  0.09188540  0.63127330  1
  N  N40  1  0.56968959  0.21175283  0.38395247  1
  N  N41  1  0.44617335  0.09549634  0.11058432  1
  N  N42  1  0.21102919  0.22791396  0.82659546  1
  N  N43  1  0.08572440  0.10641875  0.57811391  1
  N  N44  1  0.86602347  0.22054382  0.31549930  1
  N  N45  1  0.77416766  0.09106883  0.12410853  1
  N  N46  1  0.57255395  0.20938130  0.88011842  1
  N  N47  1  0.46364104  0.08776823  0.61436067  1
  N  N48  1  0.24030136  0.51212857  0.31315776  1
  N  N49  1  0.10831876  0.43096265  0.07519374  1
  N  N50  1  0.89061773  0.53725189  0.83228987  1
  N  N51  1  0.76325822  0.41743296  0.56550325  1
  N  N52  1  0.56440124  0.51532312  0.31653516  1
  N  N53  1  0.44295326  0.43291802  0.07124234  1
  N  N54  1  0.22268754  0.53906428  0.82790640  1
  N  N55  1  0.11632889  0.44572767  0.55987581  1
  N  N56  1  0.88920960  0.53472537  0.33025106  1
  N  N57  1  0.77693186  0.43021044  0.07340263  1
  N  N58  1  0.56883193  0.51530657  0.82037393  1
  N  N59  1  0.43645186  0.43685777  0.57743826  1
  N  N60  1  0.22334138  0.86847200  0.31941189  1
  N  N61  1  0.11426506  0.75550742  0.08698711  1
  N  N62  1  0.88898965  0.87440585  0.88281788  1
  N  N63  1  0.77108705  0.78451918  0.63681439  1
  N  N64  1  0.57915023  0.86241985  0.38525362  1
  N  N65  1  0.44804067  0.75709730  0.09430261  1
  N  N66  1  0.21190502  0.86366905  0.83579397  1
  N  N67  1  0.09941674  0.75247818  0.57548699  1
  N  N68  1  0.86180795  0.89020742  0.37718110  1
  N  N69  1  0.77960918  0.76348209  0.13102963  1
  N  N70  1  0.58392946  0.85927963  0.88958687  1
  N  N71  1  0.46462775  0.74959773  0.59469992  1
