# generated using pymatgen
data_Sc5Al13N18
_symmetry_space_group_name_H-M   'P 1'
_cell_length_a   9.86750347
_cell_length_b   9.82793324
_cell_length_c   10.35596174
_cell_angle_alpha   89.17135600
_cell_angle_beta   89.80649381
_cell_angle_gamma   59.88646872
_symmetry_Int_Tables_number   1
_chemical_formula_structural   Sc5Al13N18
_chemical_formula_sum   'Sc10 Al26 N36'
_cell_volume   868.64592976
_cell_formula_units_Z   2
loop_
 _symmetry_equiv_pos_site_id
 _symmetry_equiv_pos_as_xyz
  1  'x, y, z'
loop_
 _atom_site_type_symbol
 _atom_site_label
 _atom_site_symmetry_multiplicity
 _atom_site_fract_x
 _atom_site_fract_y
 _atom_site_fract_z
 _atom_site_occupancy
  Sc  Sc0  1  0.10257759  0.09914614  0.30362206  1
  Sc  Sc1  1  0.45057794  0.10028472  0.31601609  1
  Sc  Sc2  1  0.09727426  0.10495435  0.82971634  1
  Sc  Sc3  1  0.22009518  0.21148185  0.56569320  1
  Sc  Sc4  1  0.45277546  0.09694983  0.81844705  1
  Sc  Sc5  1  0.88089015  0.54444880  0.60031886  1
  Sc  Sc6  1  0.10482865  0.75787092  0.32642451  1
  Sc  Sc7  1  0.45124534  0.75866462  0.31689051  1
  Sc  Sc8  1  0.22382331  0.87078356  0.58063702  1
  Sc  Sc9  1  0.45629996  0.75280720  0.83551193  1
  Al  Al10  1  0.22038570  0.21229561  0.05682493  1
  Al  Al11  1  0.77580904  0.09799018  0.81310387  1
  Al  Al12  1  0.87888752  0.20125948  0.55941423  1
  Al  Al13  1  0.56345537  0.19956203  0.05971011  1
  Al  Al14  1  0.77293135  0.09759174  0.31332423  1
  Al  Al15  1  0.88201562  0.20115570  0.06116800  1
  Al  Al16  1  0.56477109  0.20324435  0.56239066  1
  Al  Al17  1  0.11035721  0.42441117  0.30648585  1
  Al  Al18  1  0.23101472  0.53208549  0.12416631  1
  Al  Al19  1  0.77462368  0.43229643  0.88254290  1
  Al  Al20  1  0.44633057  0.43018792  0.38103410  1
  Al  Al21  1  0.56018266  0.52603212  0.12547517  1
  Al  Al22  1  0.10781419  0.43518504  0.81666886  1
  Al  Al23  1  0.23218569  0.53842539  0.63720474  1
  Al  Al24  1  0.76972095  0.42678899  0.37680993  1
  Al  Al25  1  0.88409050  0.53958052  0.11617238  1
  Al  Al26  1  0.44514017  0.43097883  0.88266016  1
  Al  Al27  1  0.56135812  0.52631676  0.63277215  1
  Al  Al28  1  0.21955844  0.86490679  0.05466104  1
  Al  Al29  1  0.78328868  0.76474296  0.81575538  1
  Al  Al30  1  0.87792396  0.88204386  0.56733997  1
  Al  Al31  1  0.56324036  0.87075461  0.06313463  1
  Al  Al32  1  0.10075162  0.76251733  0.81687241  1
  Al  Al33  1  0.77894263  0.76429880  0.31584011  1
  Al  Al34  1  0.88954802  0.87081938  0.06191824  1
  Al  Al35  1  0.56593667  0.87214169  0.56495429  1
  N  N36  1  0.21274734  0.21899883  0.36353185  1
  N  N37  1  0.10967333  0.09291094  0.09261326  1
  N  N38  1  0.86578110  0.21113883  0.87935640  1
  N  N39  1  0.77534675  0.09727757  0.62701683  1
  N  N40  1  0.56963124  0.21051216  0.37793025  1
  N  N41  1  0.44490600  0.09557963  0.10520790  1
  N  N42  1  0.21589571  0.22696951  0.87472996  1
  N  N43  1  0.08463793  0.11071642  0.62314663  1
  N  N44  1  0.87554801  0.20336357  0.37023960  1
  N  N45  1  0.77757481  0.09081037  0.12531633  1
  N  N46  1  0.56986496  0.20831636  0.87598452  1
  N  N47  1  0.46156842  0.09006650  0.60938399  1
  N  N48  1  0.24223439  0.51203984  0.31379378  1
  N  N49  1  0.10738251  0.42690199  0.11579830  1
  N  N50  1  0.88513626  0.53899399  0.83303599  1
  N  N51  1  0.76029304  0.42269220  0.56183680  1
  N  N52  1  0.56577509  0.51453284  0.30927003  1
  N  N53  1  0.44409367  0.42986424  0.06895813  1
  N  N54  1  0.23054353  0.53789456  0.82866311  1
  N  N55  1  0.11972995  0.43636623  0.62805246  1
  N  N56  1  0.88763261  0.53654177  0.33855278  1
  N  N57  1  0.77501608  0.43229037  0.07296947  1
  N  N58  1  0.57018752  0.51021282  0.81784506  1
  N  N59  1  0.43880786  0.43849725  0.57034270  1
  N  N60  1  0.22288146  0.87162020  0.37754045  1
  N  N61  1  0.10811988  0.76182672  0.11424581  1
  N  N62  1  0.88812011  0.87422264  0.87544542  1
  N  N63  1  0.76866075  0.78696232  0.63154106  1
  N  N64  1  0.57597095  0.86273523  0.38034165  1
  N  N65  1  0.44479274  0.76026061  0.09941152  1
  N  N66  1  0.21340943  0.85973654  0.86878045  1
  N  N67  1  0.09288375  0.76074274  0.62394943  1
  N  N68  1  0.86720751  0.88423696  0.38026283  1
  N  N69  1  0.77824794  0.76559950  0.12715259  1
  N  N70  1  0.58192033  0.86326472  0.88419006  1
  N  N71  1  0.46904756  0.75393282  0.62123511  1
