# generated using pymatgen
data_Sc5Al13N18
_symmetry_space_group_name_H-M   'P 1'
_cell_length_a   9.89245445
_cell_length_b   9.83635163
_cell_length_c   10.22009261
_cell_angle_alpha   89.58063328
_cell_angle_beta   90.06170291
_cell_angle_gamma   60.14009159
_symmetry_Int_Tables_number   1
_chemical_formula_structural   Sc5Al13N18
_chemical_formula_sum   'Sc10 Al26 N36'
_cell_volume   862.41607658
_cell_formula_units_Z   2
loop_
 _symmetry_equiv_pos_site_id
 _symmetry_equiv_pos_as_xyz
  1  'x, y, z'
loop_
 _atom_site_type_symbol
 _atom_site_label
 _atom_site_symmetry_multiplicity
 _atom_site_fract_x
 _atom_site_fract_y
 _atom_site_fract_z
 _atom_site_occupancy
  Sc  Sc0  1  0.09831918  0.10142977  0.31726981  1
  Sc  Sc1  1  0.44887569  0.09769487  0.32765236  1
  Sc  Sc2  1  0.09880923  0.10333134  0.83927442  1
  Sc  Sc3  1  0.21879892  0.21315274  0.57713188  1
  Sc  Sc4  1  0.45375111  0.09685435  0.82759047  1
  Sc  Sc5  1  0.88331061  0.54421419  0.57721228  1
  Sc  Sc6  1  0.10416476  0.75222552  0.36233880  1
  Sc  Sc7  1  0.45062876  0.75620204  0.32313338  1
  Sc  Sc8  1  0.22044638  0.86869743  0.59198314  1
  Sc  Sc9  1  0.45682547  0.75527445  0.84508828  1
  Al  Al10  1  0.22204852  0.21221743  0.06679336  1
  Al  Al11  1  0.77857383  0.09478221  0.82195533  1
  Al  Al12  1  0.87519606  0.20866132  0.57234641  1
  Al  Al13  1  0.56329702  0.20085168  0.07034514  1
  Al  Al14  1  0.76963855  0.10279111  0.32317818  1
  Al  Al15  1  0.88006958  0.20872977  0.06895519  1
  Al  Al16  1  0.56508969  0.20140159  0.57195858  1
  Al  Al17  1  0.10419708  0.42707573  0.31040162  1
  Al  Al18  1  0.23186691  0.53038768  0.13578053  1
  Al  Al19  1  0.77784825  0.42238306  0.82766201  1
  Al  Al20  1  0.44485486  0.42906823  0.38658707  1
  Al  Al21  1  0.56035375  0.53110943  0.10094645  1
  Al  Al22  1  0.10621208  0.43618690  0.82893153  1
  Al  Al23  1  0.22348389  0.54536174  0.64519985  1
  Al  Al24  1  0.77788754  0.42500583  0.31478641  1
  Al  Al25  1  0.88901241  0.53914190  0.06865430  1
  Al  Al26  1  0.44357766  0.42967230  0.89310663  1
  Al  Al27  1  0.55629286  0.53198175  0.62014334  1
  Al  Al28  1  0.22394290  0.87152826  0.06740975  1
  Al  Al29  1  0.78665051  0.76308995  0.82511200  1
  Al  Al30  1  0.87600955  0.88013549  0.57046154  1
  Al  Al31  1  0.56533578  0.87167669  0.07073928  1
  Al  Al32  1  0.10906630  0.75158516  0.89468446  1
  Al  Al33  1  0.77902998  0.76053701  0.31829121  1
  Al  Al34  1  0.88187603  0.87666743  0.07679712  1
  Al  Al35  1  0.56818934  0.86830303  0.57281515  1
  N  N36  1  0.20965848  0.22253078  0.37150223  1
  N  N37  1  0.10948720  0.09495017  0.10210149  1
  N  N38  1  0.86618937  0.21387724  0.88666015  1
  N  N39  1  0.77710817  0.09378607  0.63340893  1
  N  N40  1  0.56652521  0.21115529  0.38555105  1
  N  N41  1  0.44654441  0.09486571  0.11321866  1
  N  N42  1  0.21724942  0.22636247  0.88149242  1
  N  N43  1  0.08506563  0.10925246  0.62947798  1
  N  N44  1  0.86701811  0.21707408  0.38394084  1
  N  N45  1  0.77766898  0.09502667  0.13355500  1
  N  N46  1  0.57152465  0.20909730  0.88248724  1
  N  N47  1  0.46202671  0.08671917  0.61554492  1
  N  N48  1  0.23952185  0.51194877  0.32213998  1
  N  N49  1  0.10623276  0.42832014  0.11988337  1
  N  N50  1  0.88771114  0.54047995  0.87721124  1
  N  N51  1  0.77037754  0.41598337  0.63844269  1
  N  N52  1  0.56236036  0.51811488  0.32955861  1
  N  N53  1  0.44186422  0.42619346  0.08191421  1
  N  N54  1  0.22753214  0.54252630  0.83858402  1
  N  N55  1  0.11177859  0.43918749  0.64273966  1
  N  N56  1  0.88944345  0.53871632  0.36528338  1
  N  N57  1  0.78593303  0.42375842  0.12446181  1
  N  N58  1  0.56814220  0.51977845  0.87205800  1
  N  N59  1  0.43761618  0.43508896  0.58390496  1
  N  N60  1  0.22225098  0.87454847  0.38244262  1
  N  N61  1  0.11185806  0.75634231  0.09763748  1
  N  N62  1  0.88775499  0.87525390  0.88634887  1
  N  N63  1  0.77266312  0.77901463  0.63990583  1
  N  N64  1  0.57766310  0.85930253  0.38651302  1
  N  N65  1  0.44637191  0.76343792  0.10460041  1
  N  N66  1  0.21542511  0.86148035  0.87601387  1
  N  N67  1  0.09647943  0.74891146  0.58081764  1
  N  N68  1  0.85947080  0.88975668  0.37922495  1
  N  N69  1  0.78074495  0.75964418  0.13026500  1
  N  N70  1  0.58413912  0.86495175  0.88942583  1
  N  N71  1  0.46928211  0.74991666  0.62748053  1
