# generated using pymatgen
data_Sc5Al13N18
_symmetry_space_group_name_H-M   'P 1'
_cell_length_a   9.92047288
_cell_length_b   9.89649028
_cell_length_c   10.10981315
_cell_angle_alpha   89.55738555
_cell_angle_beta   89.61976642
_cell_angle_gamma   60.09721601
_symmetry_Int_Tables_number   1
_chemical_formula_structural   Sc5Al13N18
_chemical_formula_sum   'Sc10 Al26 N36'
_cell_volume   860.39275479
_cell_formula_units_Z   2
loop_
 _symmetry_equiv_pos_site_id
 _symmetry_equiv_pos_as_xyz
  1  'x, y, z'
loop_
 _atom_site_type_symbol
 _atom_site_label
 _atom_site_symmetry_multiplicity
 _atom_site_fract_x
 _atom_site_fract_y
 _atom_site_fract_z
 _atom_site_occupancy
  Sc  Sc0  1  0.09393452  0.10492617  0.37172330  1
  Sc  Sc1  1  0.45531731  0.09556504  0.33722419  1
  Sc  Sc2  1  0.10117265  0.10784155  0.87077585  1
  Sc  Sc3  1  0.22019827  0.21734575  0.61307745  1
  Sc  Sc4  1  0.45785010  0.09196986  0.82913765  1
  Sc  Sc5  1  0.88206123  0.54154928  0.61349807  1
  Sc  Sc6  1  0.10572959  0.75661479  0.34520433  1
  Sc  Sc7  1  0.45026396  0.75787280  0.32634605  1
  Sc  Sc8  1  0.22431264  0.86711063  0.60160073  1
  Sc  Sc9  1  0.46009022  0.74981039  0.84803359  1
  Al  Al10  1  0.21882519  0.21023333  0.13420248  1
  Al  Al11  1  0.77616114  0.09231088  0.82293754  1
  Al  Al12  1  0.87215037  0.21524930  0.63713283  1
  Al  Al13  1  0.56094069  0.20173789  0.06802731  1
  Al  Al14  1  0.76915695  0.09811385  0.31427179  1
  Al  Al15  1  0.88387839  0.20967943  0.12865301  1
  Al  Al16  1  0.56647770  0.20529180  0.56939849  1
  Al  Al17  1  0.11197167  0.43402378  0.37590838  1
  Al  Al18  1  0.22813672  0.53072964  0.13021068  1
  Al  Al19  1  0.77757261  0.42791642  0.88607478  1
  Al  Al20  1  0.44448999  0.43175466  0.38460720  1
  Al  Al21  1  0.55940594  0.52590145  0.12768901  1
  Al  Al22  1  0.10637280  0.43517937  0.88681441  1
  Al  Al23  1  0.22178978  0.53956474  0.63581523  1
  Al  Al24  1  0.76830392  0.42351367  0.37921136  1
  Al  Al25  1  0.89050578  0.53395865  0.13520854  1
  Al  Al26  1  0.44453265  0.42891672  0.88366198  1
  Al  Al27  1  0.55864916  0.52778329  0.63660353  1
  Al  Al28  1  0.22022485  0.86540823  0.06799776  1
  Al  Al29  1  0.78668844  0.76166960  0.82287634  1
  Al  Al30  1  0.87624700  0.88297451  0.57147931  1
  Al  Al31  1  0.56609106  0.86980119  0.07300559  1
  Al  Al32  1  0.10403633  0.75613878  0.84103971  1
  Al  Al33  1  0.78004747  0.76350964  0.32083613  1
  Al  Al34  1  0.88797936  0.87096871  0.07085715  1
  Al  Al35  1  0.56851159  0.86758541  0.57215765  1
  N  N36  1  0.21149006  0.22401298  0.32818807  1
  N  N37  1  0.10993836  0.09466486  0.09268546  1
  N  N38  1  0.86857714  0.21974540  0.82970209  1
  N  N39  1  0.77360038  0.09349071  0.63171961  1
  N  N40  1  0.56985519  0.21489764  0.38092451  1
  N  N41  1  0.44673816  0.09381229  0.11402174  1
  N  N42  1  0.21558719  0.22974889  0.82521927  1
  N  N43  1  0.08280874  0.11326230  0.59190548  1
  N  N44  1  0.86582005  0.21966472  0.31561152  1
  N  N45  1  0.77519918  0.08907500  0.12160321  1
  N  N46  1  0.57013726  0.20895177  0.87988166  1
  N  N47  1  0.46520366  0.08728736  0.60661771  1
  N  N48  1  0.24000795  0.51356584  0.31737913  1
  N  N49  1  0.10871027  0.42913202  0.07849721  1
  N  N50  1  0.89080941  0.53549865  0.83313192  1
  N  N51  1  0.76101857  0.41780788  0.56644917  1
  N  N52  1  0.56285273  0.51750382  0.31585220  1
  N  N53  1  0.44163092  0.43057958  0.07405691  1
  N  N54  1  0.22444087  0.53434604  0.83011574  1
  N  N55  1  0.11539686  0.44862278  0.56081707  1
  N  N56  1  0.88938898  0.53402303  0.33395876  1
  N  N57  1  0.77807895  0.42903755  0.07575499  1
  N  N58  1  0.56964658  0.51066883  0.82632817  1
  N  N59  1  0.43631180  0.43837408  0.57920941  1
  N  N60  1  0.22588557  0.86717680  0.38807856  1
  N  N61  1  0.10916355  0.75903097  0.11291488  1
  N  N62  1  0.88928667  0.87243734  0.88086565  1
  N  N63  1  0.77085873  0.78336721  0.63503123  1
  N  N64  1  0.57933019  0.85721420  0.38474698  1
  N  N65  1  0.44530271  0.75932374  0.10224543  1
  N  N66  1  0.21434648  0.86099958  0.86812514  1
  N  N67  1  0.09238725  0.75717906  0.61311172  1
  N  N68  1  0.86371166  0.88908345  0.38031294  1
  N  N69  1  0.78087932  0.76174746  0.13075461  1
  N  N70  1  0.58596319  0.86015482  0.88989477  1
  N  N71  1  0.47184203  0.75074578  0.62693598  1
