# generated using pymatgen
data_Sc5Al13N18
_symmetry_space_group_name_H-M   'P 1'
_cell_length_a   9.94517699
_cell_length_b   9.91326323
_cell_length_c   10.03743236
_cell_angle_alpha   89.62703095
_cell_angle_beta   89.92978052
_cell_angle_gamma   60.05679410
_symmetry_Int_Tables_number   1
_chemical_formula_structural   Sc5Al13N18
_chemical_formula_sum   'Sc10 Al26 N36'
_cell_volume   857.47268128
_cell_formula_units_Z   2
loop_
 _symmetry_equiv_pos_site_id
 _symmetry_equiv_pos_as_xyz
  1  'x, y, z'
loop_
 _atom_site_type_symbol
 _atom_site_label
 _atom_site_symmetry_multiplicity
 _atom_site_fract_x
 _atom_site_fract_y
 _atom_site_fract_z
 _atom_site_occupancy
  Sc  Sc0  1  0.10214758  0.09482904  0.32931288  1
  Sc  Sc1  1  0.45602968  0.09612545  0.33779441  1
  Sc  Sc2  1  0.09806606  0.10622032  0.84830895  1
  Sc  Sc3  1  0.21924002  0.21527704  0.60646721  1
  Sc  Sc4  1  0.45535564  0.09246893  0.83070747  1
  Sc  Sc5  1  0.88238791  0.54070295  0.61472490  1
  Sc  Sc6  1  0.10477904  0.75703722  0.33912854  1
  Sc  Sc7  1  0.45037322  0.75711131  0.33052232  1
  Sc  Sc8  1  0.22431756  0.86821699  0.59882694  1
  Sc  Sc9  1  0.45902643  0.74929999  0.84848797  1
  Al  Al10  1  0.22151759  0.21256859  0.12861093  1
  Al  Al11  1  0.77716956  0.09739882  0.82595023  1
  Al  Al12  1  0.87389303  0.20524372  0.57203916  1
  Al  Al13  1  0.56054591  0.20274031  0.06816890  1
  Al  Al14  1  0.77036220  0.09813626  0.31607204  1
  Al  Al15  1  0.88064123  0.20543140  0.08338570  1
  Al  Al16  1  0.56472732  0.20603754  0.57274091  1
  Al  Al17  1  0.11215381  0.43510403  0.37586892  1
  Al  Al18  1  0.22855685  0.53198697  0.12899785  1
  Al  Al19  1  0.77639143  0.43045686  0.89133259  1
  Al  Al20  1  0.44517022  0.43087485  0.38512032  1
  Al  Al21  1  0.55797532  0.52855724  0.12932043  1
  Al  Al22  1  0.10666546  0.43538515  0.88622476  1
  Al  Al23  1  0.22387272  0.53652412  0.63742036  1
  Al  Al24  1  0.76877474  0.42795068  0.37504984  1
  Al  Al25  1  0.89048465  0.53640453  0.13659370  1
  Al  Al26  1  0.44394684  0.42952204  0.88300894  1
  Al  Al27  1  0.56051323  0.52690269  0.63658110  1
  Al  Al28  1  0.21965458  0.86462272  0.06393495  1
  Al  Al29  1  0.78552109  0.76217158  0.82498747  1
  Al  Al30  1  0.87675266  0.88275447  0.57540298  1
  Al  Al31  1  0.56608233  0.86932101  0.07438032  1
  Al  Al32  1  0.09999358  0.75948713  0.82366644  1
  Al  Al33  1  0.78081458  0.76498322  0.32266738  1
  Al  Al34  1  0.88954171  0.87057845  0.07011658  1
  Al  Al35  1  0.56906836  0.86754836  0.57285529  1
  N  N36  1  0.21230490  0.22442621  0.33103983  1
  N  N37  1  0.11314353  0.09229815  0.10229679  1
  N  N38  1  0.86663145  0.21207705  0.89021561  1
  N  N39  1  0.77499964  0.09758279  0.63417793  1
  N  N40  1  0.57020137  0.21438233  0.38235090  1
  N  N41  1  0.44703091  0.09491692  0.11267033  1
  N  N42  1  0.21482353  0.23041310  0.82570841  1
  N  N43  1  0.08149065  0.11083935  0.61840494  1
  N  N44  1  0.86859417  0.21196164  0.35346537  1
  N  N45  1  0.77446376  0.08962630  0.12599190  1
  N  N46  1  0.56820726  0.20974344  0.87800088  1
  N  N47  1  0.46480197  0.08711631  0.60658071  1
  N  N48  1  0.24049913  0.51365213  0.31823933  1
  N  N49  1  0.10858101  0.43102020  0.07931715  1
  N  N50  1  0.88991781  0.53512694  0.83539108  1
  N  N51  1  0.76034400  0.42175558  0.56621930  1
  N  N52  1  0.56203726  0.51786309  0.31779030  1
  N  N53  1  0.44224085  0.43116229  0.07491089  1
  N  N54  1  0.22433707  0.53447326  0.83165606  1
  N  N55  1  0.11537307  0.44901259  0.56203194  1
  N  N56  1  0.89021407  0.53595824  0.33545101  1
  N  N57  1  0.77540514  0.43569259  0.08522326  1
  N  N58  1  0.57159972  0.50941181  0.82689986  1
  N  N59  1  0.43678459  0.43815057  0.58079714  1
  N  N60  1  0.22452507  0.86638151  0.38938951  1
  N  N61  1  0.10821071  0.76199973  0.11926970  1
  N  N62  1  0.88880193  0.87321767  0.87996574  1
  N  N63  1  0.77116944  0.78317406  0.63571744  1
  N  N64  1  0.57969320  0.85778700  0.38364028  1
  N  N65  1  0.44428842  0.76032436  0.10346706  1
  N  N66  1  0.21394057  0.85869310  0.86863882  1
  N  N67  1  0.09143320  0.75867902  0.62641269  1
  N  N68  1  0.86545046  0.88834185  0.38411524  1
  N  N69  1  0.78173412  0.76357103  0.13116117  1
  N  N70  1  0.58472229  0.85933227  0.88996999  1
  N  N71  1  0.47177472  0.75060963  0.62463401  1
