# generated using pymatgen
data_Sc5Al13N18
_symmetry_space_group_name_H-M   'P 1'
_cell_length_a   9.91668912
_cell_length_b   9.88269189
_cell_length_c   10.02995354
_cell_angle_alpha   89.84194198
_cell_angle_beta   89.57988043
_cell_angle_gamma   60.09606399
_symmetry_Int_Tables_number   1
_chemical_formula_structural   Sc5Al13N18
_chemical_formula_sum   'Sc10 Al26 N36'
_cell_volume   852.07767238
_cell_formula_units_Z   2
loop_
 _symmetry_equiv_pos_site_id
 _symmetry_equiv_pos_as_xyz
  1  'x, y, z'
loop_
 _atom_site_type_symbol
 _atom_site_label
 _atom_site_symmetry_multiplicity
 _atom_site_fract_x
 _atom_site_fract_y
 _atom_site_fract_z
 _atom_site_occupancy
  Sc  Sc0  1  0.09451187  0.10410413  0.37803791  1
  Sc  Sc1  1  0.44853894  0.10072798  0.36482442  1
  Sc  Sc2  1  0.10039507  0.10143412  0.89172413  1
  Sc  Sc3  1  0.22276282  0.21264723  0.63047259  1
  Sc  Sc4  1  0.44716430  0.10305811  0.88835604  1
  Sc  Sc5  1  0.88381545  0.54196822  0.63252597  1
  Sc  Sc6  1  0.10230307  0.75174082  0.38205340  1
  Sc  Sc7  1  0.45310487  0.74718496  0.37085816  1
  Sc  Sc8  1  0.22050679  0.86847410  0.63475383  1
  Sc  Sc9  1  0.45024670  0.75213002  0.88334400  1
  Al  Al10  1  0.21606116  0.21442322  0.14607968  1
  Al  Al11  1  0.77536985  0.09802551  0.89045768  1
  Al  Al12  1  0.87389715  0.20930605  0.64321695  1
  Al  Al13  1  0.56146377  0.21196544  0.14313688  1
  Al  Al14  1  0.77221717  0.09899878  0.39289345  1
  Al  Al15  1  0.87817073  0.20983653  0.14193973  1
  Al  Al16  1  0.56224392  0.20692658  0.64010173  1
  Al  Al17  1  0.11181214  0.43427768  0.38697509  1
  Al  Al18  1  0.22851768  0.53169429  0.13726733  1
  Al  Al19  1  0.77682131  0.42718481  0.89414213  1
  Al  Al20  1  0.44845694  0.42317687  0.39187136  1
  Al  Al21  1  0.55994797  0.52841407  0.14064297  1
  Al  Al22  1  0.10663421  0.43622706  0.89719500  1
  Al  Al23  1  0.22311254  0.54033160  0.64622572  1
  Al  Al24  1  0.77225585  0.42242839  0.38903393  1
  Al  Al25  1  0.89072420  0.53656014  0.14472809  1
  Al  Al26  1  0.44864688  0.42589675  0.88869411  1
  Al  Al27  1  0.56024965  0.52829036  0.64172441  1
  Al  Al28  1  0.22037058  0.86950591  0.14352431  1
  Al  Al29  1  0.79137711  0.75509748  0.90149382  1
  Al  Al30  1  0.88503849  0.87601307  0.64727976  1
  Al  Al31  1  0.56324473  0.86789457  0.09851225  1
  Al  Al32  1  0.10709620  0.75753714  0.89674972  1
  Al  Al33  1  0.78706231  0.76034428  0.38317362  1
  Al  Al34  1  0.88431672  0.87762325  0.13980709  1
  Al  Al35  1  0.56651131  0.87124232  0.57543520  1
  N  N36  1  0.20766798  0.22708963  0.33610982  1
  N  N37  1  0.10705360  0.09696104  0.10901431  1
  N  N38  1  0.86811216  0.21681359  0.83416591  1
  N  N39  1  0.77811169  0.09275510  0.58573844  1
  N  N40  1  0.56798546  0.21766978  0.33126334  1
  N  N41  1  0.44438441  0.09918802  0.11437928  1
  N  N42  1  0.21084355  0.22756049  0.84109726  1
  N  N43  1  0.08676838  0.10774150  0.59400114  1
  N  N44  1  0.86312002  0.21567416  0.32808570  1
  N  N45  1  0.77640747  0.09575307  0.08092025  1
  N  N46  1  0.56656207  0.21565733  0.82996895  1
  N  N47  1  0.46404244  0.08919592  0.59394151  1
  N  N48  1  0.23970762  0.51538498  0.32513442  1
  N  N49  1  0.10960866  0.43028117  0.08840439  1
  N  N50  1  0.88920901  0.53955846  0.84766364  1
  N  N51  1  0.76663304  0.41677814  0.57801374  1
  N  N52  1  0.56642301  0.51305784  0.32792941  1
  N  N53  1  0.44656787  0.42625773  0.07941442  1
  N  N54  1  0.22344150  0.53840690  0.84070803  1
  N  N55  1  0.11763356  0.44461945  0.57464529  1
  N  N56  1  0.88951805  0.53725941  0.34034577  1
  N  N57  1  0.77864433  0.42808218  0.08589952  1
  N  N58  1  0.56804112  0.51769188  0.83242447  1
  N  N59  1  0.44148826  0.43034865  0.58566171  1
  N  N60  1  0.21762052  0.86870778  0.33505448  1
  N  N61  1  0.10954328  0.75845488  0.09305545  1
  N  N62  1  0.88891581  0.87321245  0.84190584  1
  N  N63  1  0.78110793  0.77590210  0.58135115  1
  N  N64  1  0.57515883  0.86143732  0.36835160  1
  N  N65  1  0.44606484  0.75569140  0.10985007  1
  N  N66  1  0.21146072  0.86392803  0.84555738  1
  N  N67  1  0.09906986  0.75294916  0.59368213  1
  N  N68  1  0.86749977  0.88929845  0.32739677  1
  N  N69  1  0.78946124  0.75437358  0.09707175  1
  N  N70  1  0.57626874  0.86472354  0.89582127  1
  N  N71  1  0.46816413  0.74850130  0.60075102  1
