# generated using pymatgen
data_Sc5Al13N18
_symmetry_space_group_name_H-M   'P 1'
_cell_length_a   9.87382271
_cell_length_b   9.82361711
_cell_length_c   10.27990482
_cell_angle_alpha   89.45430804
_cell_angle_beta   90.05031454
_cell_angle_gamma   60.11089283
_symmetry_Int_Tables_number   1
_chemical_formula_structural   Sc5Al13N18
_chemical_formula_sum   'Sc10 Al26 N36'
_cell_volume   864.43402156
_cell_formula_units_Z   2
loop_
 _symmetry_equiv_pos_site_id
 _symmetry_equiv_pos_as_xyz
  1  'x, y, z'
loop_
 _atom_site_type_symbol
 _atom_site_label
 _atom_site_symmetry_multiplicity
 _atom_site_fract_x
 _atom_site_fract_y
 _atom_site_fract_z
 _atom_site_occupancy
  Sc  Sc0  1  0.09916011  0.10053023  0.30977326  1
  Sc  Sc1  1  0.44888487  0.09972996  0.32240047  1
  Sc  Sc2  1  0.09900583  0.10257131  0.83544214  1
  Sc  Sc3  1  0.21784435  0.21289532  0.57126692  1
  Sc  Sc4  1  0.45314275  0.09681162  0.82192189  1
  Sc  Sc5  1  0.88260200  0.54676305  0.57028938  1
  Sc  Sc6  1  0.10490288  0.75176523  0.35715425  1
  Sc  Sc7  1  0.45130319  0.75791818  0.32611717  1
  Sc  Sc8  1  0.22140592  0.86864246  0.58734087  1
  Sc  Sc9  1  0.45742806  0.75355177  0.84151599  1
  Al  Al10  1  0.22200516  0.21207279  0.06151668  1
  Al  Al11  1  0.77730238  0.09625264  0.81670912  1
  Al  Al12  1  0.87680037  0.20871991  0.56675847  1
  Al  Al13  1  0.56362664  0.20052342  0.06468464  1
  Al  Al14  1  0.77071701  0.10210754  0.31808404  1
  Al  Al15  1  0.87900206  0.20978024  0.06372910  1
  Al  Al16  1  0.56504752  0.20247154  0.56652527  1
  Al  Al17  1  0.10505351  0.42672840  0.30423323  1
  Al  Al18  1  0.23129717  0.53166485  0.12985323  1
  Al  Al19  1  0.78039484  0.42069135  0.81744511  1
  Al  Al20  1  0.44522872  0.42985098  0.38491906  1
  Al  Al21  1  0.55677165  0.52876138  0.12745627  1
  Al  Al22  1  0.10517175  0.43566405  0.82300320  1
  Al  Al23  1  0.22426209  0.54364436  0.63974114  1
  Al  Al24  1  0.78201207  0.42329707  0.31191622  1
  Al  Al25  1  0.88769686  0.53929999  0.06365129  1
  Al  Al26  1  0.44412662  0.43014594  0.88680562  1
  Al  Al27  1  0.55512416  0.52918865  0.63739072  1
  Al  Al28  1  0.22387313  0.86892877  0.06340067  1
  Al  Al29  1  0.78523748  0.76361798  0.82045134  1
  Al  Al30  1  0.87603917  0.88107295  0.56675315  1
  Al  Al31  1  0.56471621  0.87099218  0.06726035  1
  Al  Al32  1  0.10808537  0.75220399  0.88189503  1
  Al  Al33  1  0.77972685  0.76165377  0.31265201  1
  Al  Al34  1  0.88359267  0.87594984  0.07107698  1
  Al  Al35  1  0.56740233  0.87011643  0.56895978  1
  N  N36  1  0.20912841  0.22219001  0.36636618  1
  N  N37  1  0.10961009  0.09409739  0.09627426  1
  N  N38  1  0.86476622  0.21548016  0.88238707  1
  N  N39  1  0.77691038  0.09526571  0.62911396  1
  N  N40  1  0.56783192  0.21161297  0.38098176  1
  N  N41  1  0.44624519  0.09525231  0.10946592  1
  N  N42  1  0.21689473  0.22618528  0.87748061  1
  N  N43  1  0.08594874  0.10814226  0.62730254  1
  N  N44  1  0.86891929  0.21569636  0.37903212  1
  N  N45  1  0.77785634  0.09482984  0.12898592  1
  N  N46  1  0.57088724  0.20832999  0.87900132  1
  N  N47  1  0.46130744  0.08875059  0.61110235  1
  N  N48  1  0.24140080  0.51091836  0.31577486  1
  N  N49  1  0.10612386  0.42836459  0.11490259  1
  N  N50  1  0.88592642  0.54053479  0.87282917  1
  N  N51  1  0.77476434  0.41593281  0.62827489  1
  N  N52  1  0.56226293  0.51654084  0.31632446  1
  N  N53  1  0.44328848  0.42925781  0.07346957  1
  N  N54  1  0.22695300  0.54119702  0.83284870  1
  N  N55  1  0.11122543  0.43843301  0.63794031  1
  N  N56  1  0.88999318  0.53938734  0.35944943  1
  N  N57  1  0.78473948  0.42402587  0.12054914  1
  N  N58  1  0.56212361  0.51555370  0.82726386  1
  N  N59  1  0.43736369  0.43635617  0.57630285  1
  N  N60  1  0.22187151  0.87499614  0.37890175  1
  N  N61  1  0.11081595  0.75730402  0.09648658  1
  N  N62  1  0.88730062  0.87574855  0.88117308  1
  N  N63  1  0.77174636  0.78093888  0.63662452  1
  N  N64  1  0.57886345  0.86134332  0.38277614  1
  N  N65  1  0.44718130  0.76041258  0.10336044  1
  N  N66  1  0.21660299  0.86001887  0.87306364  1
  N  N67  1  0.09635624  0.74930436  0.57936186  1
  N  N68  1  0.86069004  0.88941769  0.37601105  1
  N  N69  1  0.78095033  0.76009727  0.12563729  1
  N  N70  1  0.58304851  0.86473607  0.88659191  1
  N  N71  1  0.46883398  0.75237978  0.62145031  1
