# generated using pymatgen
data_Sc5Al13N18
_symmetry_space_group_name_H-M   'P 1'
_cell_length_a   9.84209584
_cell_length_b   9.80220830
_cell_length_c   10.32591608
_cell_angle_alpha   89.73925823
_cell_angle_beta   90.00829167
_cell_angle_gamma   60.19794804
_symmetry_Int_Tables_number   1
_chemical_formula_structural   Sc5Al13N18
_chemical_formula_sum   'Sc10 Al26 N36'
_cell_volume   864.42514149
_cell_formula_units_Z   2
loop_
 _symmetry_equiv_pos_site_id
 _symmetry_equiv_pos_as_xyz
  1  'x, y, z'
loop_
 _atom_site_type_symbol
 _atom_site_label
 _atom_site_symmetry_multiplicity
 _atom_site_fract_x
 _atom_site_fract_y
 _atom_site_fract_z
 _atom_site_occupancy
  Sc  Sc0  1  0.09885377  0.10144895  0.31412835  1
  Sc  Sc1  1  0.44861642  0.09749032  0.32414591  1
  Sc  Sc2  1  0.09936390  0.10250810  0.83870312  1
  Sc  Sc3  1  0.21878208  0.21372398  0.57554360  1
  Sc  Sc4  1  0.45330981  0.09575713  0.82675649  1
  Sc  Sc5  1  0.88439915  0.54502698  0.57607427  1
  Sc  Sc6  1  0.10335684  0.75198381  0.36306358  1
  Sc  Sc7  1  0.45257778  0.75250160  0.32248082  1
  Sc  Sc8  1  0.22042172  0.86949521  0.58692457  1
  Sc  Sc9  1  0.45848439  0.75138187  0.82997256  1
  Al  Al10  1  0.22164172  0.21262403  0.06544427  1
  Al  Al11  1  0.77864732  0.09514748  0.82157675  1
  Al  Al12  1  0.87572795  0.20893181  0.57250323  1
  Al  Al13  1  0.56302251  0.20155683  0.06957140  1
  Al  Al14  1  0.77000187  0.10222036  0.32302798  1
  Al  Al15  1  0.87846199  0.21026574  0.06913973  1
  Al  Al16  1  0.56414975  0.20145023  0.57294326  1
  Al  Al17  1  0.10426192  0.42717747  0.30880903  1
  Al  Al18  1  0.23293111  0.53110675  0.13539682  1
  Al  Al19  1  0.77503223  0.42353654  0.82236935  1
  Al  Al20  1  0.44132896  0.42670263  0.39265777  1
  Al  Al21  1  0.56384904  0.53424253  0.07061665  1
  Al  Al22  1  0.10502020  0.43625897  0.82900122  1
  Al  Al23  1  0.22453266  0.54474302  0.64709147  1
  Al  Al24  1  0.77615932  0.42615187  0.31982042  1
  Al  Al25  1  0.88751592  0.53975960  0.06970407  1
  Al  Al26  1  0.44337148  0.42910016  0.89145511  1
  Al  Al27  1  0.56219870  0.53259905  0.57274937  1
  Al  Al28  1  0.22689253  0.87011617  0.06645890  1
  Al  Al29  1  0.78576086  0.76273654  0.82505951  1
  Al  Al30  1  0.87568565  0.88030243  0.57049966  1
  Al  Al31  1  0.56376601  0.87010513  0.06904528  1
  Al  Al32  1  0.10981758  0.75176222  0.89610468  1
  Al  Al33  1  0.77830190  0.76123292  0.31707742  1
  Al  Al34  1  0.88154761  0.87697896  0.07581048  1
  Al  Al35  1  0.56747835  0.86906786  0.57029845  1
  N  N36  1  0.20953103  0.22334489  0.37162342  1
  N  N37  1  0.10916139  0.09526812  0.10149171  1
  N  N38  1  0.86522146  0.21600503  0.88761581  1
  N  N39  1  0.77727033  0.09385631  0.63430571  1
  N  N40  1  0.56662501  0.21004573  0.38635314  1
  N  N41  1  0.44620541  0.09452587  0.11217572  1
  N  N42  1  0.21691877  0.22687963  0.88259360  1
  N  N43  1  0.08579640  0.10889682  0.63091919  1
  N  N44  1  0.86862251  0.21563088  0.38458242  1
  N  N45  1  0.77743192  0.09504422  0.13432163  1
  N  N46  1  0.57127431  0.20872082  0.88321567  1
  N  N47  1  0.46158713  0.08601202  0.61704323  1
  N  N48  1  0.24089995  0.51242098  0.31970476  1
  N  N49  1  0.10556687  0.42846256  0.12065435  1
  N  N50  1  0.88646223  0.54045277  0.87924869  1
  N  N51  1  0.76848329  0.41820733  0.63757206  1
  N  N52  1  0.56948885  0.52060452  0.38419471  1
  N  N53  1  0.44351986  0.42752173  0.08228313  1
  N  N54  1  0.22735708  0.54312848  0.83851777  1
  N  N55  1  0.11100804  0.43879553  0.64521220  1
  N  N56  1  0.89003488  0.53991320  0.36549283  1
  N  N57  1  0.77897754  0.42707837  0.13148925  1
  N  N58  1  0.57112374  0.52094123  0.88606771  1
  N  N59  1  0.43554777  0.43207796  0.58624305  1
  N  N60  1  0.22270902  0.87462633  0.38006020  1
  N  N61  1  0.11195243  0.75642826  0.09589808  1
  N  N62  1  0.88711720  0.87583092  0.88671643  1
  N  N63  1  0.77166038  0.77956320  0.64089913  1
  N  N64  1  0.57605930  0.86028799  0.38544247  1
  N  N65  1  0.44833373  0.75955658  0.11008981  1
  N  N66  1  0.21933833  0.85994966  0.87753422  1
  N  N67  1  0.09715416  0.74747892  0.57880189  1
  N  N68  1  0.85851128  0.89006350  0.38031263  1
  N  N69  1  0.77961618  0.76048680  0.13028108  1
  N  N70  1  0.58128918  0.86268602  0.88906574  1
  N  N71  1  0.46911193  0.74897556  0.62111168  1
