# generated using pymatgen
data_Sc5Al13N18
_symmetry_space_group_name_H-M   'P 1'
_cell_length_a   9.91673307
_cell_length_b   9.89202929
_cell_length_c   10.12019201
_cell_angle_alpha   89.56005090
_cell_angle_beta   89.63166123
_cell_angle_gamma   60.09684586
_symmetry_Int_Tables_number   1
_chemical_formula_structural   Sc5Al13N18
_chemical_formula_sum   'Sc10 Al26 N36'
_cell_volume   860.56095512
_cell_formula_units_Z   2
loop_
 _symmetry_equiv_pos_site_id
 _symmetry_equiv_pos_as_xyz
  1  'x, y, z'
loop_
 _atom_site_type_symbol
 _atom_site_label
 _atom_site_symmetry_multiplicity
 _atom_site_fract_x
 _atom_site_fract_y
 _atom_site_fract_z
 _atom_site_occupancy
  Sc  Sc0  1  0.09403296  0.10467629  0.37160752  1
  Sc  Sc1  1  0.45524299  0.09567035  0.33707773  1
  Sc  Sc2  1  0.10125229  0.10759914  0.87113889  1
  Sc  Sc3  1  0.21998203  0.21763527  0.61324525  1
  Sc  Sc4  1  0.45782029  0.09202479  0.82908822  1
  Sc  Sc5  1  0.88196854  0.54161928  0.61383112  1
  Sc  Sc6  1  0.10562700  0.75723342  0.34046443  1
  Sc  Sc7  1  0.44998597  0.75808329  0.32590827  1
  Sc  Sc8  1  0.22499084  0.86732513  0.60101777  1
  Sc  Sc9  1  0.45960327  0.74989978  0.84829478  1
  Al  Al10  1  0.21876634  0.21014058  0.13419410  1
  Al  Al11  1  0.77606131  0.09238827  0.82310281  1
  Al  Al12  1  0.87220624  0.21527467  0.63726981  1
  Al  Al13  1  0.56109695  0.20157946  0.06805881  1
  Al  Al14  1  0.76947218  0.09771519  0.31441577  1
  Al  Al15  1  0.88391244  0.20956861  0.12877265  1
  Al  Al16  1  0.56656512  0.20519842  0.56928389  1
  Al  Al17  1  0.11188402  0.43412162  0.37582678  1
  Al  Al18  1  0.22816446  0.53065682  0.13002393  1
  Al  Al19  1  0.77758125  0.42791981  0.88614121  1
  Al  Al20  1  0.44460191  0.43175689  0.38453292  1
  Al  Al21  1  0.55944129  0.52592526  0.12771537  1
  Al  Al22  1  0.10658899  0.43538966  0.88690653  1
  Al  Al23  1  0.22281140  0.53815868  0.63626074  1
  Al  Al24  1  0.76836611  0.42355332  0.37928110  1
  Al  Al25  1  0.89047955  0.53400473  0.13524059  1
  Al  Al26  1  0.44416111  0.42917219  0.88393184  1
  Al  Al27  1  0.55874973  0.52781172  0.63679925  1
  Al  Al28  1  0.21959929  0.86470944  0.06693828  1
  Al  Al29  1  0.78652964  0.76177484  0.82309644  1
  Al  Al30  1  0.87642420  0.88301540  0.57215861  1
  Al  Al31  1  0.56613432  0.86981259  0.07298779  1
  Al  Al32  1  0.10224178  0.75776737  0.82993843  1
  Al  Al33  1  0.78024516  0.76343191  0.32096010  1
  Al  Al34  1  0.88899707  0.87047051  0.07009284  1
  Al  Al35  1  0.56853132  0.86765574  0.57210374  1
  N  N36  1  0.21138626  0.22395755  0.32810321  1
  N  N37  1  0.10994327  0.09445865  0.09271709  1
  N  N38  1  0.86867679  0.21975062  0.82958133  1
  N  N39  1  0.77348931  0.09363210  0.63192205  1
  N  N40  1  0.57011635  0.21467658  0.38102105  1
  N  N41  1  0.44670691  0.09382461  0.11417883  1
  N  N42  1  0.21546326  0.22970817  0.82512105  1
  N  N43  1  0.08286614  0.11330218  0.59155572  1
  N  N44  1  0.86590554  0.21959361  0.31563340  1
  N  N45  1  0.77540897  0.08871574  0.12184407  1
  N  N46  1  0.57011146  0.20898667  0.88014784  1
  N  N47  1  0.46503339  0.08742814  0.60663756  1
  N  N48  1  0.24010873  0.51342344  0.31747691  1
  N  N49  1  0.10870532  0.42916755  0.07851236  1
  N  N50  1  0.89084010  0.53550207  0.83314260  1
  N  N51  1  0.76103217  0.41784456  0.56639427  1
  N  N52  1  0.56287433  0.51765697  0.31579584  1
  N  N53  1  0.44165703  0.43059772  0.07420042  1
  N  N54  1  0.22489822  0.53377066  0.83012219  1
  N  N55  1  0.11526843  0.44921088  0.56050675  1
  N  N56  1  0.88938451  0.53395610  0.33384775  1
  N  N57  1  0.77809422  0.42898548  0.07571643  1
  N  N58  1  0.56961452  0.51062993  0.82629572  1
  N  N59  1  0.43645944  0.43847331  0.57886781  1
  N  N60  1  0.22575899  0.86640618  0.38916692  1
  N  N61  1  0.10875912  0.75987481  0.11676559  1
  N  N62  1  0.88960445  0.87231410  0.88076137  1
  N  N63  1  0.77080812  0.78341989  0.63520762  1
  N  N64  1  0.57933465  0.85719946  0.38478584  1
  N  N65  1  0.44505413  0.75932291  0.10216572  1
  N  N66  1  0.21369074  0.86060025  0.86834388  1
  N  N67  1  0.09161030  0.75831053  0.62199897  1
  N  N68  1  0.86471971  0.88837191  0.38152305  1
  N  N69  1  0.78107642  0.76188288  0.13090310  1
  N  N70  1  0.58577087  0.86017390  0.89005783  1
  N  N71  1  0.47193311  0.75088506  0.62721781  1
