# generated using pymatgen
data_Sc5Al13N18
_symmetry_space_group_name_H-M   'P 1'
_cell_length_a   9.87807058
_cell_length_b   9.82852936
_cell_length_c   10.24193396
_cell_angle_alpha   89.63235416
_cell_angle_beta   90.03073392
_cell_angle_gamma   60.13492342
_symmetry_Int_Tables_number   1
_chemical_formula_structural   Sc5Al13N18
_chemical_formula_sum   'Sc10 Al26 N36'
_cell_volume   862.28167939
_cell_formula_units_Z   2
loop_
 _symmetry_equiv_pos_site_id
 _symmetry_equiv_pos_as_xyz
  1  'x, y, z'
loop_
 _atom_site_type_symbol
 _atom_site_label
 _atom_site_symmetry_multiplicity
 _atom_site_fract_x
 _atom_site_fract_y
 _atom_site_fract_z
 _atom_site_occupancy
  Sc  Sc0  1  0.09871363  0.10137614  0.31667453  1
  Sc  Sc1  1  0.44879354  0.09725127  0.32690273  1
  Sc  Sc2  1  0.09872060  0.10339650  0.83951388  1
  Sc  Sc3  1  0.21880573  0.21344419  0.57711610  1
  Sc  Sc4  1  0.45372924  0.09638409  0.82750130  1
  Sc  Sc5  1  0.88381732  0.54421506  0.57774162  1
  Sc  Sc6  1  0.10392372  0.75252134  0.36290109  1
  Sc  Sc7  1  0.45154671  0.75462972  0.32244005  1
  Sc  Sc8  1  0.22065814  0.86882763  0.59102358  1
  Sc  Sc9  1  0.45842990  0.75235819  0.83651674  1
  Al  Al10  1  0.22201971  0.21226170  0.06651936  1
  Al  Al11  1  0.77853189  0.09508675  0.82197217  1
  Al  Al12  1  0.87499115  0.20899135  0.57273574  1
  Al  Al13  1  0.56314065  0.20136768  0.07085043  1
  Al  Al14  1  0.77010429  0.10210805  0.32318006  1
  Al  Al15  1  0.87896414  0.20951098  0.06965485  1
  Al  Al16  1  0.56431481  0.20203683  0.57281379  1
  Al  Al17  1  0.10392036  0.42722835  0.31020689  1
  Al  Al18  1  0.23220110  0.53077332  0.13559809  1
  Al  Al19  1  0.77442899  0.42353839  0.82406391  1
  Al  Al20  1  0.44187040  0.42713411  0.38981194  1
  Al  Al21  1  0.56361428  0.53281052  0.07470158  1
  Al  Al22  1  0.10562516  0.43627416  0.82930070  1
  Al  Al23  1  0.22455367  0.54464733  0.64607910  1
  Al  Al24  1  0.77621650  0.42613883  0.31884757  1
  Al  Al25  1  0.88808966  0.53941073  0.06952099  1
  Al  Al26  1  0.44351411  0.42927750  0.89192211  1
  Al  Al27  1  0.56062331  0.53326676  0.57643270  1
  Al  Al28  1  0.22531364  0.87064225  0.06701785  1
  Al  Al29  1  0.78626915  0.76288715  0.82525222  1
  Al  Al30  1  0.87598265  0.88010907  0.57078138  1
  Al  Al31  1  0.56481371  0.87085252  0.07028060  1
  Al  Al32  1  0.10928587  0.75187819  0.89491021  1
  Al  Al33  1  0.77899375  0.76051774  0.31817139  1
  Al  Al34  1  0.88190044  0.87664462  0.07664072  1
  Al  Al35  1  0.56784663  0.86834987  0.57201980  1
  N  N36  1  0.20961913  0.22295693  0.37172417  1
  N  N37  1  0.10928267  0.09509140  0.10184421  1
  N  N38  1  0.86528090  0.21536709  0.88715016  1
  N  N39  1  0.77707941  0.09371204  0.63375233  1
  N  N40  1  0.56669731  0.21061953  0.38509831  1
  N  N41  1  0.44648289  0.09455329  0.11293432  1
  N  N42  1  0.21728186  0.22645443  0.88177980  1
  N  N43  1  0.08505722  0.10936413  0.63007300  1
  N  N44  1  0.86773167  0.21603731  0.38390041  1
  N  N45  1  0.77774692  0.09472364  0.13377815  1
  N  N46  1  0.57125897  0.20938320  0.88301493  1
  N  N47  1  0.46204633  0.08624799  0.61590135  1
  N  N48  1  0.23935143  0.51263879  0.32141620  1
  N  N49  1  0.10578192  0.42833668  0.12019366  1
  N  N50  1  0.88683294  0.54021816  0.87800075  1
  N  N51  1  0.76758086  0.41773184  0.63773106  1
  N  N52  1  0.56753313  0.52122166  0.37686366  1
  N  N53  1  0.44320527  0.42681728  0.08432690  1
  N  N54  1  0.22750264  0.54266203  0.83938679  1
  N  N55  1  0.11149366  0.43923447  0.64386677  1
  N  N56  1  0.88974014  0.53909031  0.36584993  1
  N  N57  1  0.78077201  0.42611822  0.12978983  1
  N  N58  1  0.57081989  0.52043672  0.88723949  1
  N  N59  1  0.43592657  0.43279036  0.58589693  1
  N  N60  1  0.22300801  0.87437373  0.38175733  1
  N  N61  1  0.11192685  0.75651961  0.09717312  1
  N  N62  1  0.88744207  0.87550814  0.88645920  1
  N  N63  1  0.77234550  0.77920115  0.64023723  1
  N  N64  1  0.57699924  0.85942153  0.38577270  1
  N  N65  1  0.44770182  0.76069253  0.10761491  1
  N  N66  1  0.21745397  0.86063273  0.87601092  1
  N  N67  1  0.09681414  0.74848847  0.58071655  1
  N  N68  1  0.85927546  0.88960668  0.37962103  1
  N  N69  1  0.78046377  0.75980502  0.13027476  1
  N  N70  1  0.58266120  0.86377355  0.88915973  1
  N  N71  1  0.46974816  0.74878463  0.62458772  1
