# generated using pymatgen
data_Sc5Al13N18
_symmetry_space_group_name_H-M   'P 1'
_cell_length_a   9.92355628
_cell_length_b   9.89983099
_cell_length_c   10.10565820
_cell_angle_alpha   89.55085615
_cell_angle_beta   89.60338307
_cell_angle_gamma   60.09744444
_symmetry_Int_Tables_number   1
_chemical_formula_structural   Sc5Al13N18
_chemical_formula_sum   'Sc10 Al26 N36'
_cell_volume   860.59731832
_cell_formula_units_Z   2
loop_
 _symmetry_equiv_pos_site_id
 _symmetry_equiv_pos_as_xyz
  1  'x, y, z'
loop_
 _atom_site_type_symbol
 _atom_site_label
 _atom_site_symmetry_multiplicity
 _atom_site_fract_x
 _atom_site_fract_y
 _atom_site_fract_z
 _atom_site_occupancy
  Sc  Sc0  1  0.09384559  0.10520278  0.37201830  1
  Sc  Sc1  1  0.45541404  0.09544649  0.33730688  1
  Sc  Sc2  1  0.10105326  0.10803187  0.87027901  1
  Sc  Sc3  1  0.22044173  0.21702267  0.61300637  1
  Sc  Sc4  1  0.45790272  0.09190180  0.82915239  1
  Sc  Sc5  1  0.88220734  0.54143587  0.61326847  1
  Sc  Sc6  1  0.10581505  0.75553073  0.35394776  1
  Sc  Sc7  1  0.45063947  0.75762830  0.32691255  1
  Sc  Sc8  1  0.22317357  0.86656173  0.60261233  1
  Sc  Sc9  1  0.46057216  0.74976269  0.84749818  1
  Al  Al10  1  0.21886465  0.21035448  0.13424651  1
  Al  Al11  1  0.77642497  0.09201058  0.82264145  1
  Al  Al12  1  0.87211300  0.21521412  0.63700847  1
  Al  Al13  1  0.56075359  0.20193535  0.06786608  1
  Al  Al14  1  0.76873838  0.09863232  0.31413859  1
  Al  Al15  1  0.88382947  0.20985683  0.12861731  1
  Al  Al16  1  0.56635219  0.20541858  0.56949971  1
  Al  Al17  1  0.11205588  0.43398810  0.37607600  1
  Al  Al18  1  0.22844688  0.53013592  0.13046780  1
  Al  Al19  1  0.77755153  0.42791431  0.88599221  1
  Al  Al20  1  0.44428534  0.43184373  0.38472339  1
  Al  Al21  1  0.55941781  0.52583076  0.12772158  1
  Al  Al22  1  0.10611818  0.43498946  0.88654698  1
  Al  Al23  1  0.22016451  0.54198216  0.63553461  1
  Al  Al24  1  0.76825065  0.42346819  0.37917768  1
  Al  Al25  1  0.89053978  0.53385461  0.13520884  1
  Al  Al26  1  0.44491587  0.42865246  0.88322177  1
  Al  Al27  1  0.55853327  0.52773803  0.63638868  1
  Al  Al28  1  0.22166134  0.86677812  0.06919630  1
  Al  Al29  1  0.78702164  0.76165706  0.82256660  1
  Al  Al30  1  0.87611957  0.88288202  0.57044388  1
  Al  Al31  1  0.56599980  0.86978678  0.07292554  1
  Al  Al32  1  0.10703409  0.75314372  0.86469903  1
  Al  Al33  1  0.77980004  0.76363174  0.32070897  1
  Al  Al34  1  0.88542478  0.87223827  0.07160920  1
  Al  Al35  1  0.56850854  0.86754568  0.57220628  1
  N  N36  1  0.21157401  0.22415752  0.32815069  1
  N  N37  1  0.10990845  0.09488991  0.09262566  1
  N  N38  1  0.86845125  0.21976288  0.82973629  1
  N  N39  1  0.77379188  0.09326647  0.63145653  1
  N  N40  1  0.56948287  0.21520997  0.38088657  1
  N  N41  1  0.44677457  0.09379672  0.11385687  1
  N  N42  1  0.21569673  0.22980268  0.82531107  1
  N  N43  1  0.08280740  0.11308544  0.59222438  1
  N  N44  1  0.86574837  0.21976208  0.31552028  1
  N  N45  1  0.77491107  0.08958102  0.12143466  1
  N  N46  1  0.57020958  0.20888297  0.87962590  1
  N  N47  1  0.46540068  0.08714840  0.60670042  1
  N  N48  1  0.23975065  0.51398187  0.31675972  1
  N  N49  1  0.10871067  0.42906423  0.07833472  1
  N  N50  1  0.89073897  0.53551679  0.83311483  1
  N  N51  1  0.76102122  0.41776819  0.56645084  1
  N  N52  1  0.56286351  0.51727692  0.31583859  1
  N  N53  1  0.44165722  0.43054343  0.07376895  1
  N  N54  1  0.22348461  0.53579163  0.82999107  1
  N  N55  1  0.11557962  0.44795398  0.56122129  1
  N  N56  1  0.88940453  0.53409808  0.33397151  1
  N  N57  1  0.77806579  0.42908208  0.07574075  1
  N  N58  1  0.56968357  0.51071447  0.82629474  1
  N  N59  1  0.43603344  0.43837352  0.57956553  1
  N  N60  1  0.22610790  0.86817827  0.38631634  1
  N  N61  1  0.11011010  0.75715672  0.10282333  1
  N  N62  1  0.88877888  0.87272626  0.88091090  1
  N  N63  1  0.77102866  0.78331960  0.63485794  1
  N  N64  1  0.57932463  0.85726480  0.38480686  1
  N  N65  1  0.44566650  0.75929685  0.10242830  1
  N  N66  1  0.21515705  0.86153327  0.86750752  1
  N  N67  1  0.09371033  0.75525956  0.59684814  1
  N  N68  1  0.86225173  0.89014595  0.37843263  1
  N  N69  1  0.78057689  0.76159046  0.13067014  1
  N  N70  1  0.58619467  0.86009744  0.88976190  1
  N  N71  1  0.47163596  0.75066691  0.62656671  1
