# generated using pymatgen
data_Sc5Al13N18
_symmetry_space_group_name_H-M   'P 1'
_cell_length_a   9.94986307
_cell_length_b   9.91881120
_cell_length_c   10.02437902
_cell_angle_alpha   89.63428617
_cell_angle_beta   89.90498961
_cell_angle_gamma   60.05564806
_symmetry_Int_Tables_number   1
_chemical_formula_structural   Sc5Al13N18
_chemical_formula_sum   'Sc10 Al26 N36'
_cell_volume   857.23239113
_cell_formula_units_Z   2
loop_
 _symmetry_equiv_pos_site_id
 _symmetry_equiv_pos_as_xyz
  1  'x, y, z'
loop_
 _atom_site_type_symbol
 _atom_site_label
 _atom_site_symmetry_multiplicity
 _atom_site_fract_x
 _atom_site_fract_y
 _atom_site_fract_z
 _atom_site_occupancy
  Sc  Sc0  1  0.10151697  0.09562259  0.33148494  1
  Sc  Sc1  1  0.45623151  0.09638216  0.33781095  1
  Sc  Sc2  1  0.09920168  0.10591006  0.85257855  1
  Sc  Sc3  1  0.21939615  0.21563440  0.60681442  1
  Sc  Sc4  1  0.45519466  0.09240825  0.83091365  1
  Sc  Sc5  1  0.88219984  0.54111776  0.61365035  1
  Sc  Sc6  1  0.10488279  0.75706227  0.33912261  1
  Sc  Sc7  1  0.45030086  0.75738086  0.33068135  1
  Sc  Sc8  1  0.22462802  0.86778563  0.59926969  1
  Sc  Sc9  1  0.45938568  0.74891951  0.84877248  1
  Al  Al10  1  0.22156757  0.21220091  0.12889438  1
  Al  Al11  1  0.77688416  0.09625497  0.82860817  1
  Al  Al12  1  0.87319080  0.20722838  0.58925203  1
  Al  Al13  1  0.56018511  0.20259755  0.06793615  1
  Al  Al14  1  0.77025847  0.09828890  0.31424783  1
  Al  Al15  1  0.88018761  0.20682739  0.09152052  1
  Al  Al16  1  0.56462456  0.20615731  0.57282109  1
  Al  Al17  1  0.11212315  0.43514408  0.37566079  1
  Al  Al18  1  0.22854216  0.53191388  0.12886911  1
  Al  Al19  1  0.77643377  0.43029354  0.89162830  1
  Al  Al20  1  0.44529428  0.43089426  0.38486604  1
  Al  Al21  1  0.55793601  0.52878257  0.12941536  1
  Al  Al22  1  0.10648680  0.43552203  0.88607196  1
  Al  Al23  1  0.22381075  0.53657833  0.63736297  1
  Al  Al24  1  0.76952011  0.42588201  0.37375980  1
  Al  Al25  1  0.89018588  0.53653937  0.13658630  1
  Al  Al26  1  0.44393253  0.42958649  0.88287282  1
  Al  Al27  1  0.55997690  0.52707945  0.63604557  1
  Al  Al28  1  0.21995931  0.86437077  0.06434644  1
  Al  Al29  1  0.78564209  0.76178124  0.82481075  1
  Al  Al30  1  0.87699089  0.88267238  0.57524760  1
  Al  Al31  1  0.56616822  0.86927401  0.07450534  1
  Al  Al32  1  0.10012580  0.75925676  0.82380891  1
  Al  Al33  1  0.78085983  0.76512905  0.32270397  1
  Al  Al34  1  0.88941323  0.87017621  0.06998792  1
  Al  Al35  1  0.56910440  0.86772376  0.57267962  1
  N  N36  1  0.21251623  0.22444516  0.33134343  1
  N  N37  1  0.11474761  0.09155319  0.10105415  1
  N  N38  1  0.86678820  0.21233110  0.88839802  1
  N  N39  1  0.77439984  0.09690572  0.63555140  1
  N  N40  1  0.57104459  0.21435191  0.38254160  1
  N  N41  1  0.44684200  0.09491599  0.11260084  1
  N  N42  1  0.21481304  0.23061274  0.82549043  1
  N  N43  1  0.08218650  0.11060513  0.61715117  1
  N  N44  1  0.86762319  0.21553991  0.33275456  1
  N  N45  1  0.77335785  0.08807128  0.12362921  1
  N  N46  1  0.56742578  0.21006762  0.87766776  1
  N  N47  1  0.46481776  0.08716742  0.60645836  1
  N  N48  1  0.24056436  0.51358879  0.31831685  1
  N  N49  1  0.10846373  0.43090922  0.07940383  1
  N  N50  1  0.88998951  0.53498859  0.83456218  1
  N  N51  1  0.76080394  0.41958558  0.56524048  1
  N  N52  1  0.56166377  0.51850700  0.31831717  1
  N  N53  1  0.44233425  0.43116963  0.07498229  1
  N  N54  1  0.22431729  0.53447413  0.83169981  1
  N  N55  1  0.11517374  0.44920570  0.56216469  1
  N  N56  1  0.89001834  0.53615716  0.33604260  1
  N  N57  1  0.77450763  0.43728070  0.08405633  1
  N  N58  1  0.57165793  0.50927797  0.82629921  1
  N  N59  1  0.43668730  0.43805371  0.58075642  1
  N  N60  1  0.22447412  0.86625731  0.38960132  1
  N  N61  1  0.10825469  0.76183423  0.11910809  1
  N  N62  1  0.88908618  0.87236671  0.87977439  1
  N  N63  1  0.77126384  0.78317019  0.63527959  1
  N  N64  1  0.57963905  0.85819973  0.38339791  1
  N  N65  1  0.44437319  0.76018325  0.10332653  1
  N  N66  1  0.21426043  0.85826288  0.86823909  1
  N  N67  1  0.09148060  0.75866299  0.62623515  1
  N  N68  1  0.86542720  0.88897377  0.38393596  1
  N  N69  1  0.78180217  0.76322519  0.13111316  1
  N  N70  1  0.58481647  0.85927515  0.88977440  1
  N  N71  1  0.47232027  0.75020024  0.62411511  1
