# generated using pymatgen
data_Sc5Al13N18
_symmetry_space_group_name_H-M   'P 1'
_cell_length_a   9.86103185
_cell_length_b   9.80753385
_cell_length_c   10.32507705
_cell_angle_alpha   89.43691126
_cell_angle_beta   90.04044560
_cell_angle_gamma   60.15272868
_symmetry_Int_Tables_number   1
_chemical_formula_structural   Sc5Al13N18
_chemical_formula_sum   'Sc10 Al26 N36'
_cell_volume   866.04890176
_cell_formula_units_Z   2
loop_
 _symmetry_equiv_pos_site_id
 _symmetry_equiv_pos_as_xyz
  1  'x, y, z'
loop_
 _atom_site_type_symbol
 _atom_site_label
 _atom_site_symmetry_multiplicity
 _atom_site_fract_x
 _atom_site_fract_y
 _atom_site_fract_z
 _atom_site_occupancy
  Sc  Sc0  1  0.09891437  0.10055073  0.31501639  1
  Sc  Sc1  1  0.44892511  0.09988414  0.32645841  1
  Sc  Sc2  1  0.09930994  0.10193672  0.83924181  1
  Sc  Sc3  1  0.21816533  0.21290483  0.57583432  1
  Sc  Sc4  1  0.45290274  0.09700788  0.82697669  1
  Sc  Sc5  1  0.88346362  0.54693894  0.57480400  1
  Sc  Sc6  1  0.10427020  0.75029806  0.36466989  1
  Sc  Sc7  1  0.45097262  0.75790120  0.33146050  1
  Sc  Sc8  1  0.22067548  0.86789790  0.59119039  1
  Sc  Sc9  1  0.45713914  0.75400614  0.84446655  1
  Al  Al10  1  0.22179017  0.21195771  0.06629807  1
  Al  Al11  1  0.77792614  0.09562368  0.82179507  1
  Al  Al12  1  0.87691663  0.20880404  0.57162204  1
  Al  Al13  1  0.56363495  0.20075514  0.06888246  1
  Al  Al14  1  0.77004718  0.10300413  0.32305077  1
  Al  Al15  1  0.87941500  0.20992014  0.06846296  1
  Al  Al16  1  0.56480285  0.20248935  0.57177707  1
  Al  Al17  1  0.10525337  0.42645237  0.30842633  1
  Al  Al18  1  0.23222604  0.53077142  0.13481894  1
  Al  Al19  1  0.78088099  0.42080763  0.82211135  1
  Al  Al20  1  0.44501144  0.43001456  0.39048255  1
  Al  Al21  1  0.55689955  0.52890403  0.13325201  1
  Al  Al22  1  0.10524733  0.43574094  0.82846169  1
  Al  Al23  1  0.22362237  0.54447955  0.64615513  1
  Al  Al24  1  0.78227131  0.42341767  0.31680487  1
  Al  Al25  1  0.88757994  0.53942078  0.06850218  1
  Al  Al26  1  0.44437878  0.43049585  0.89163121  1
  Al  Al27  1  0.55544060  0.52885640  0.64232480  1
  Al  Al28  1  0.22540312  0.86994389  0.06871180  1
  Al  Al29  1  0.78563337  0.76390085  0.82554895  1
  Al  Al30  1  0.87516932  0.88137049  0.57082076  1
  Al  Al31  1  0.56434828  0.87091929  0.07184807  1
  Al  Al32  1  0.10939336  0.75078148  0.89653370  1
  Al  Al33  1  0.77888080  0.76203140  0.31745971  1
  Al  Al34  1  0.88150412  0.87714909  0.07629367  1
  Al  Al35  1  0.56707582  0.87035773  0.57401156  1
  N  N36  1  0.20937593  0.22223030  0.37174434  1
  N  N37  1  0.10955798  0.09431381  0.10256108  1
  N  N38  1  0.86523242  0.21548988  0.88767243  1
  N  N39  1  0.77708672  0.09511877  0.63441570  1
  N  N40  1  0.56750878  0.21161750  0.38703619  1
  N  N41  1  0.44623079  0.09544156  0.11437656  1
  N  N42  1  0.21662769  0.22603828  0.88320492  1
  N  N43  1  0.08643712  0.10733788  0.63189291  1
  N  N44  1  0.86874237  0.21608224  0.38461892  1
  N  N45  1  0.77741137  0.09562214  0.13444677  1
  N  N46  1  0.57119352  0.20826495  0.88405587  1
  N  N47  1  0.46119896  0.08871799  0.61721258  1
  N  N48  1  0.24215603  0.51053684  0.31923102  1
  N  N49  1  0.10609991  0.42815862  0.11999927  1
  N  N50  1  0.88603273  0.54079931  0.87850641  1
  N  N51  1  0.77549015  0.41606797  0.63349592  1
  N  N52  1  0.56243479  0.51619500  0.32125673  1
  N  N53  1  0.44377757  0.42951168  0.07763406  1
  N  N54  1  0.22669132  0.54232574  0.83812009  1
  N  N55  1  0.11146465  0.43790706  0.64433072  1
  N  N56  1  0.89039286  0.53965982  0.36449891  1
  N  N57  1  0.78494573  0.42401282  0.12608917  1
  N  N58  1  0.56242631  0.51561110  0.83118572  1
  N  N59  1  0.43676213  0.43679610  0.58124912  1
  N  N60  1  0.22112620  0.87457403  0.38352502  1
  N  N61  1  0.11146917  0.75592370  0.09672192  1
  N  N62  1  0.88728499  0.87594792  0.88731912  1
  N  N63  1  0.77157209  0.78096402  0.64210110  1
  N  N64  1  0.57835884  0.86168891  0.38861831  1
  N  N65  1  0.44755712  0.76062361  0.11009868  1
  N  N66  1  0.21731006  0.86011360  0.87959694  1
  N  N67  1  0.09598972  0.74745100  0.57971681  1
  N  N68  1  0.85954776  0.89024326  0.38034374  1
  N  N69  1  0.78022163  0.76029616  0.13115107  1
  N  N70  1  0.58302685  0.86462043  0.89185248  1
  N  N71  1  0.46795927  0.75259157  0.62594791  1
