# generated using pymatgen
data_Sc5Al13N18
_symmetry_space_group_name_H-M   'P 1'
_cell_length_a   9.87465047
_cell_length_b   9.82703994
_cell_length_c   10.26978787
_cell_angle_alpha   89.45435308
_cell_angle_beta   90.04965241
_cell_angle_gamma   60.10013924
_symmetry_Int_Tables_number   1
_chemical_formula_structural   Sc5Al13N18
_chemical_formula_sum   'Sc10 Al26 N36'
_cell_volume   863.86346362
_cell_formula_units_Z   2
loop_
 _symmetry_equiv_pos_site_id
 _symmetry_equiv_pos_as_xyz
  1  'x, y, z'
loop_
 _atom_site_type_symbol
 _atom_site_label
 _atom_site_symmetry_multiplicity
 _atom_site_fract_x
 _atom_site_fract_y
 _atom_site_fract_z
 _atom_site_occupancy
  Sc  Sc0  1  0.09926036  0.10028360  0.30936164  1
  Sc  Sc1  1  0.44883384  0.09975688  0.32247868  1
  Sc  Sc2  1  0.09896139  0.10284300  0.83603721  1
  Sc  Sc3  1  0.21774569  0.21270447  0.57121491  1
  Sc  Sc4  1  0.45318565  0.09684672  0.82198099  1
  Sc  Sc5  1  0.88218853  0.54677155  0.57032580  1
  Sc  Sc6  1  0.10509824  0.75305873  0.35167620  1
  Sc  Sc7  1  0.45134254  0.75805079  0.32558561  1
  Sc  Sc8  1  0.22201558  0.86927762  0.58690261  1
  Sc  Sc9  1  0.45734643  0.75344811  0.84238757  1
  Al  Al10  1  0.22203307  0.21203677  0.06169241  1
  Al  Al11  1  0.77674563  0.09703409  0.81673450  1
  Al  Al12  1  0.87681768  0.20868888  0.56687855  1
  Al  Al13  1  0.56377275  0.20034227  0.06509883  1
  Al  Al14  1  0.77118127  0.10149667  0.31818189  1
  Al  Al15  1  0.87895982  0.20965194  0.06391339  1
  Al  Al16  1  0.56520826  0.20230951  0.56642102  1
  Al  Al17  1  0.10504250  0.42665035  0.30456186  1
  Al  Al18  1  0.23051527  0.53278068  0.13006270  1
  Al  Al19  1  0.78026626  0.42072887  0.81758230  1
  Al  Al20  1  0.44546051  0.42962555  0.38479618  1
  Al  Al21  1  0.55668050  0.52880938  0.12728924  1
  Al  Al22  1  0.10510343  0.43543647  0.82290910  1
  Al  Al23  1  0.22537199  0.54188407  0.63884479  1
  Al  Al24  1  0.78199018  0.42320562  0.31193025  1
  Al  Al25  1  0.88778160  0.53937594  0.06385516  1
  Al  Al26  1  0.44399981  0.43019242  0.88726702  1
  Al  Al27  1  0.55505687  0.52935656  0.63751436  1
  Al  Al28  1  0.22198620  0.86748522  0.06341910  1
  Al  Al29  1  0.78477849  0.76336753  0.82050707  1
  Al  Al30  1  0.87631150  0.88107421  0.56752656  1
  Al  Al31  1  0.56485827  0.87100315  0.06746795  1
  Al  Al32  1  0.10606230  0.75483329  0.86331092  1
  Al  Al33  1  0.78012242  0.76155550  0.31275224  1
  Al  Al34  1  0.88661850  0.87438533  0.07093476  1
  Al  Al35  1  0.56743919  0.87008941  0.56897024  1
  N  N36  1  0.20900106  0.22186747  0.36617564  1
  N  N37  1  0.10967064  0.09388900  0.09570476  1
  N  N38  1  0.86463626  0.21557088  0.88238091  1
  N  N39  1  0.77668395  0.09552923  0.62926520  1
  N  N40  1  0.56816330  0.21133637  0.38076194  1
  N  N41  1  0.44624808  0.09520280  0.10949986  1
  N  N42  1  0.21699504  0.22619986  0.87741129  1
  N  N43  1  0.08581736  0.10843590  0.62776535  1
  N  N44  1  0.86910311  0.21547971  0.37897539  1
  N  N45  1  0.77817509  0.09432069  0.12888163  1
  N  N46  1  0.57072533  0.20846187  0.87921914  1
  N  N47  1  0.46128817  0.08879717  0.61095150  1
  N  N48  1  0.24126601  0.51051259  0.31725214  1
  N  N49  1  0.10620839  0.42849519  0.11501832  1
  N  N50  1  0.88589556  0.54043929  0.87273914  1
  N  N51  1  0.77459836  0.41589364  0.62831448  1
  N  N52  1  0.56218306  0.51672202  0.31641066  1
  N  N53  1  0.44294101  0.42936646  0.07391770  1
  N  N54  1  0.22752463  0.53986334  0.83263824  1
  N  N55  1  0.11106715  0.43831738  0.63743202  1
  N  N56  1  0.88984011  0.53926580  0.35947077  1
  N  N57  1  0.78470771  0.42402262  0.12046090  1
  N  N58  1  0.56195973  0.51559381  0.82757505  1
  N  N59  1  0.43785895  0.43604860  0.57620825  1
  N  N60  1  0.22214825  0.87497313  0.37958533  1
  N  N61  1  0.10983800  0.75950057  0.10725610  1
  N  N62  1  0.88775651  0.87542494  0.88060942  1
  N  N63  1  0.77163664  0.78091156  0.63667053  1
  N  N64  1  0.57899302  0.86129724  0.38255205  1
  N  N65  1  0.44675497  0.76040945  0.10271531  1
  N  N66  1  0.21587368  0.85972491  0.87316312  1
  N  N67  1  0.09587112  0.75132101  0.58818879  1
  N  N68  1  0.86169270  0.88863532  0.37739684  1
  N  N69  1  0.78137183  0.76017180  0.12544533  1
  N  N70  1  0.58291768  0.86482694  0.88662398  1
  N  N71  1  0.46917126  0.75234314  0.62194577  1
