# generated using pymatgen
data_Sc5Al13N18
_symmetry_space_group_name_H-M   'P 1'
_cell_length_a   9.84338932
_cell_length_b   9.80344433
_cell_length_c   10.32294027
_cell_angle_alpha   89.73952182
_cell_angle_beta   90.00777110
_cell_angle_gamma   60.19015630
_symmetry_Int_Tables_number   1
_chemical_formula_structural   Sc5Al13N18
_chemical_formula_sum   'Sc10 Al26 N36'
_cell_volume   864.33129288
_cell_formula_units_Z   2
loop_
 _symmetry_equiv_pos_site_id
 _symmetry_equiv_pos_as_xyz
  1  'x, y, z'
loop_
 _atom_site_type_symbol
 _atom_site_label
 _atom_site_symmetry_multiplicity
 _atom_site_fract_x
 _atom_site_fract_y
 _atom_site_fract_z
 _atom_site_occupancy
  Sc  Sc0  1  0.09895225  0.10128375  0.30710135  1
  Sc  Sc1  1  0.44862372  0.09749228  0.31726636  1
  Sc  Sc2  1  0.09934241  0.10253077  0.83179859  1
  Sc  Sc3  1  0.21868729  0.21366751  0.56851745  1
  Sc  Sc4  1  0.45330952  0.09577129  0.81961521  1
  Sc  Sc5  1  0.88431672  0.54501189  0.56912452  1
  Sc  Sc6  1  0.10341713  0.75199329  0.35621442  1
  Sc  Sc7  1  0.45256164  0.75251937  0.31543596  1
  Sc  Sc8  1  0.22045558  0.86940658  0.58026342  1
  Sc  Sc9  1  0.45861369  0.75134800  0.82310639  1
  Al  Al10  1  0.22168787  0.21258939  0.05844994  1
  Al  Al11  1  0.77860475  0.09514782  0.81452927  1
  Al  Al12  1  0.87574029  0.20885805  0.56544506  1
  Al  Al13  1  0.56297753  0.20154315  0.06257403  1
  Al  Al14  1  0.77003885  0.10216868  0.31595393  1
  Al  Al15  1  0.87842970  0.21022113  0.06212577  1
  Al  Al16  1  0.56412082  0.20152320  0.56585072  1
  Al  Al17  1  0.10421683  0.42717584  0.30181578  1
  Al  Al18  1  0.23284155  0.53113421  0.12833717  1
  Al  Al19  1  0.77498490  0.42345863  0.81530282  1
  Al  Al20  1  0.44131361  0.42674678  0.38552603  1
  Al  Al21  1  0.56383935  0.53415053  0.06360969  1
  Al  Al22  1  0.10500105  0.43621926  0.82195253  1
  Al  Al23  1  0.22449900  0.54468034  0.64002224  1
  Al  Al24  1  0.77619073  0.42610067  0.31280493  1
  Al  Al25  1  0.88749055  0.53971687  0.06263961  1
  Al  Al26  1  0.44332200  0.42908019  0.88439313  1
  Al  Al27  1  0.56216640  0.53261062  0.56572557  1
  Al  Al28  1  0.22689554  0.87001810  0.05928098  1
  Al  Al29  1  0.78574193  0.76275471  0.81801774  1
  Al  Al30  1  0.87563442  0.88031832  0.56349875  1
  Al  Al31  1  0.56378246  0.87014835  0.06207030  1
  Al  Al32  1  0.10977877  0.75174026  0.88889430  1
  Al  Al33  1  0.77836732  0.76116470  0.31005353  1
  Al  Al34  1  0.88158201  0.87692668  0.06874489  1
  Al  Al35  1  0.56747286  0.86904383  0.56324249  1
  N  N36  1  0.20947482  0.22330705  0.36454187  1
  N  N37  1  0.10920211  0.09516724  0.09434800  1
  N  N38  1  0.86517174  0.21596705  0.88056869  1
  N  N39  1  0.77721316  0.09387687  0.62722575  1
  N  N40  1  0.56664118  0.21011461  0.37922178  1
  N  N41  1  0.44620166  0.09452640  0.10523684  1
  N  N42  1  0.21696097  0.22684355  0.87553192  1
  N  N43  1  0.08574324  0.10887694  0.62396583  1
  N  N44  1  0.86868794  0.21553857  0.37747238  1
  N  N45  1  0.77742848  0.09499356  0.12723033  1
  N  N46  1  0.57122163  0.20871810  0.87615256  1
  N  N47  1  0.46155217  0.08606112  0.60981101  1
  N  N48  1  0.24080003  0.51245923  0.31271315  1
  N  N49  1  0.10553294  0.42845454  0.11359653  1
  N  N50  1  0.88640345  0.54041758  0.87212355  1
  N  N51  1  0.76845748  0.41812809  0.63047635  1
  N  N52  1  0.56947246  0.52061133  0.37709904  1
  N  N53  1  0.44347795  0.42750527  0.07529490  1
  N  N54  1  0.22731492  0.54304416  0.83148601  1
  N  N55  1  0.11099166  0.43876686  0.63809930  1
  N  N56  1  0.89000573  0.53986698  0.35850223  1
  N  N57  1  0.77897958  0.42703682  0.12443289  1
  N  N58  1  0.57109457  0.52085182  0.87901131  1
  N  N59  1  0.43551589  0.43212868  0.57918804  1
  N  N60  1  0.22280351  0.87455715  0.37327549  1
  N  N61  1  0.11197218  0.75641352  0.08875313  1
  N  N62  1  0.88710274  0.87581754  0.87960764  1
  N  N63  1  0.77162007  0.77959283  0.63383424  1
  N  N64  1  0.57609937  0.86022197  0.37834466  1
  N  N65  1  0.44832324  0.75954105  0.10292601  1
  N  N66  1  0.21933802  0.85986306  0.87023336  1
  N  N67  1  0.09708964  0.74751632  0.57194505  1
  N  N68  1  0.85855380  0.89001589  0.37325645  1
  N  N69  1  0.77966631  0.76043157  0.12321568  1
  N  N70  1  0.58130584  0.86278316  0.88205044  1
  N  N71  1  0.46922554  0.74893592  0.61418602  1
