# generated using pymatgen
data_Sc5Al13N18
_symmetry_space_group_name_H-M   'P 1'
_cell_length_a   9.87678825
_cell_length_b   9.83677806
_cell_length_c   10.16543511
_cell_angle_alpha   89.78489105
_cell_angle_beta   90.01428800
_cell_angle_gamma   60.05751513
_symmetry_Int_Tables_number   1
_chemical_formula_structural   Sc5Al13N18
_chemical_formula_sum   'Sc10 Al26 N36'
_cell_volume   855.79996406
_cell_formula_units_Z   2
loop_
 _symmetry_equiv_pos_site_id
 _symmetry_equiv_pos_as_xyz
  1  'x, y, z'
loop_
 _atom_site_type_symbol
 _atom_site_label
 _atom_site_symmetry_multiplicity
 _atom_site_fract_x
 _atom_site_fract_y
 _atom_site_fract_z
 _atom_site_occupancy
  Sc  Sc0  1  0.10033712  0.09927153  0.30133131  1
  Sc  Sc1  1  0.44840984  0.09807785  0.31446606  1
  Sc  Sc2  1  0.09800432  0.10390781  0.82813554  1
  Sc  Sc3  1  0.21776966  0.21375199  0.56394781  1
  Sc  Sc4  1  0.45402264  0.09609193  0.81462720  1
  Sc  Sc5  1  0.88128085  0.54462182  0.56525595  1
  Sc  Sc6  1  0.10485189  0.75659205  0.32322373  1
  Sc  Sc7  1  0.45256908  0.75231927  0.31001640  1
  Sc  Sc8  1  0.22240737  0.87090987  0.57712971  1
  Sc  Sc9  1  0.45832638  0.75103256  0.82136758  1
  Al  Al10  1  0.22263232  0.21060216  0.05276733  1
  Al  Al11  1  0.77611296  0.09757515  0.80928681  1
  Al  Al12  1  0.87525966  0.20869741  0.55943519  1
  Al  Al13  1  0.56234751  0.20614084  0.05716201  1
  Al  Al14  1  0.77270954  0.09848659  0.31126993  1
  Al  Al15  1  0.87785832  0.20955446  0.05756456  1
  Al  Al16  1  0.56115579  0.20915975  0.55816700  1
  Al  Al17  1  0.10441804  0.42829397  0.29676168  1
  Al  Al18  1  0.22718352  0.53480160  0.10774894  1
  Al  Al19  1  0.77382531  0.42365798  0.80989032  1
  Al  Al20  1  0.45511888  0.41957236  0.30624515  1
  Al  Al21  1  0.56215164  0.52994037  0.05701146  1
  Al  Al22  1  0.10533419  0.43696250  0.81972154  1
  Al  Al23  1  0.22447677  0.53953841  0.63120426  1
  Al  Al24  1  0.77663533  0.42556696  0.30740740  1
  Al  Al25  1  0.88602220  0.53986566  0.05702520  1
  Al  Al26  1  0.45322143  0.42425116  0.81561727  1
  Al  Al27  1  0.55941826  0.52921045  0.55864377  1
  Al  Al28  1  0.22141269  0.86493726  0.04844683  1
  Al  Al29  1  0.78406196  0.76290962  0.81243727  1
  Al  Al30  1  0.87594750  0.88152800  0.56284257  1
  Al  Al31  1  0.56403712  0.87057605  0.05807395  1
  Al  Al32  1  0.10059242  0.76223196  0.81521116  1
  Al  Al33  1  0.78126338  0.75995384  0.30508525  1
  Al  Al34  1  0.88901397  0.87345132  0.05832071  1
  Al  Al35  1  0.56754200  0.86930725  0.55708466  1
  N  N36  1  0.20855944  0.22266125  0.35673467  1
  N  N37  1  0.10960624  0.09332497  0.08515714  1
  N  N38  1  0.86355204  0.21668032  0.87379809  1
  N  N39  1  0.77453218  0.09657238  0.62025392  1
  N  N40  1  0.56579909  0.21494445  0.37125863  1
  N  N41  1  0.44646448  0.09583624  0.09885043  1
  N  N42  1  0.21749386  0.22550327  0.86647874  1
  N  N43  1  0.08497718  0.11000019  0.61688314  1
  N  N44  1  0.86940785  0.21423853  0.36940662  1
  N  N45  1  0.77891785  0.09216655  0.12016547  1
  N  N46  1  0.56824119  0.21361040  0.87146368  1
  N  N47  1  0.46182073  0.08821595  0.59988633  1
  N  N48  1  0.23551591  0.51475444  0.31365355  1
  N  N49  1  0.10558727  0.42809848  0.10468345  1
  N  N50  1  0.88440350  0.54025054  0.86409389  1
  N  N51  1  0.76698558  0.41771446  0.62264466  1
  N  N52  1  0.56640352  0.51793166  0.36959487  1
  N  N53  1  0.45499246  0.42224627  0.11364458  1
  N  N54  1  0.22646405  0.54011149  0.83755853  1
  N  N55  1  0.10981388  0.44015278  0.63035567  1
  N  N56  1  0.88897719  0.53877614  0.35243933  1
  N  N57  1  0.77865698  0.42726951  0.11721193  1
  N  N58  1  0.56799591  0.51770420  0.87273929  1
  N  N59  1  0.44690146  0.42685427  0.62126594  1
  N  N60  1  0.22315616  0.87240277  0.37061909  1
  N  N61  1  0.10914360  0.76266655  0.10592645  1
  N  N62  1  0.88696148  0.87658601  0.86914325  1
  N  N63  1  0.77092914  0.77977994  0.62650510  1
  N  N64  1  0.57730437  0.85971589  0.36930064  1
  N  N65  1  0.44634797  0.75871316  0.09300292  1
  N  N66  1  0.21609828  0.85940105  0.85796217  1
  N  N67  1  0.09250701  0.75844182  0.61690911  1
  N  N68  1  0.86526759  0.88535340  0.37301178  1
  N  N69  1  0.78214737  0.76038723  0.11566020  1
  N  N70  1  0.58054910  0.86353213  0.87544193  1
  N  N71  1  0.47116090  0.74740235  0.60749808  1
