# generated using pymatgen
data_Sc5Al13N18
_symmetry_space_group_name_H-M   'P 1'
_cell_length_a   9.92228729
_cell_length_b   9.89842851
_cell_length_c   10.10682372
_cell_angle_alpha   89.55410633
_cell_angle_beta   89.61087745
_cell_angle_gamma   60.09748593
_symmetry_Int_Tables_number   1
_chemical_formula_structural   Sc5Al13N18
_chemical_formula_sum   'Sc10 Al26 N36'
_cell_volume   860.46568088
_cell_formula_units_Z   2
loop_
 _symmetry_equiv_pos_site_id
 _symmetry_equiv_pos_as_xyz
  1  'x, y, z'
loop_
 _atom_site_type_symbol
 _atom_site_label
 _atom_site_symmetry_multiplicity
 _atom_site_fract_x
 _atom_site_fract_y
 _atom_site_fract_z
 _atom_site_occupancy
  Sc  Sc0  1  0.09388299  0.10508113  0.37186919  1
  Sc  Sc1  1  0.45536931  0.09550140  0.33728584  1
  Sc  Sc2  1  0.10110383  0.10798641  0.87051878  1
  Sc  Sc3  1  0.22033073  0.21716424  0.61301473  1
  Sc  Sc4  1  0.45787955  0.09193215  0.82913676  1
  Sc  Sc5  1  0.88214201  0.54149458  0.61334438  1
  Sc  Sc6  1  0.10578059  0.75607884  0.34958372  1
  Sc  Sc7  1  0.45046002  0.75774574  0.32663064  1
  Sc  Sc8  1  0.22371801  0.86683344  0.60208937  1
  Sc  Sc9  1  0.46038797  0.74976998  0.84776891  1
  Al  Al10  1  0.21885242  0.21029359  0.13422809  1
  Al  Al11  1  0.77626610  0.09220838  0.82277486  1
  Al  Al12  1  0.87212864  0.21522966  0.63705298  1
  Al  Al13  1  0.56084089  0.20183680  0.06796602  1
  Al  Al14  1  0.76893800  0.09838154  0.31419292  1
  Al  Al15  1  0.88385494  0.20976477  0.12862464  1
  Al  Al16  1  0.56641341  0.20536165  0.56945214  1
  Al  Al17  1  0.11202292  0.43399187  0.37599759  1
  Al  Al18  1  0.22824418  0.53052449  0.13036255  1
  Al  Al19  1  0.77756253  0.42791579  0.88603682  1
  Al  Al20  1  0.44438855  0.43179240  0.38467073  1
  Al  Al21  1  0.55940444  0.52586890  0.12770040  1
  Al  Al22  1  0.10622137  0.43504696  0.88670473  1
  Al  Al23  1  0.22092956  0.54083735  0.63558413  1
  Al  Al24  1  0.76827257  0.42348902  0.37918866  1
  Al  Al25  1  0.89052491  0.53390996  0.13520885  1
  Al  Al26  1  0.44478052  0.42874963  0.88345312  1
  Al  Al27  1  0.55858466  0.52776358  0.63648164  1
  Al  Al28  1  0.22089204  0.86606528  0.06868443  1
  Al  Al29  1  0.78682738  0.76163681  0.82270001  1
  Al  Al30  1  0.87618573  0.88291504  0.57093252  1
  Al  Al31  1  0.56604707  0.86979488  0.07298030  1
  Al  Al32  1  0.10558864  0.75462234  0.85275472  1
  Al  Al33  1  0.77991461  0.76357640  0.32076156  1
  Al  Al34  1  0.88681148  0.87154487  0.07132447  1
  Al  Al35  1  0.56850466  0.86755608  0.57218412  1
  N  N36  1  0.21154070  0.22407835  0.32818152  1
  N  N37  1  0.10992798  0.09478620  0.09264396  1
  N  N38  1  0.86851504  0.21975147  0.82973656  1
  N  N39  1  0.77368975  0.09338023  0.63158911  1
  N  N40  1  0.56966330  0.21506115  0.38089308  1
  N  N41  1  0.44675822  0.09380239  0.11393369  1
  N  N42  1  0.21565666  0.22977832  0.82527412  1
  N  N43  1  0.08279239  0.11319423  0.59209097  1
  N  N44  1  0.86577986  0.21971273  0.31556806  1
  N  N45  1  0.77505149  0.08933365  0.12148896  1
  N  N46  1  0.57016868  0.20891337  0.87974275  1
  N  N47  1  0.46531039  0.08721076  0.60664711  1
  N  N48  1  0.23989628  0.51374270  0.31711458  1
  N  N49  1  0.10871379  0.42909566  0.07842369  1
  N  N50  1  0.89077898  0.53550547  0.83312714  1
  N  N51  1  0.76101707  0.41778941  0.56645969  1
  N  N52  1  0.56285307  0.51738975  0.31585171  1
  N  N53  1  0.44163212  0.43056353  0.07391170  1
  N  N54  1  0.22398434  0.53499956  0.83004910  1
  N  N55  1  0.11549457  0.44823252  0.56103594  1
  N  N56  1  0.88939746  0.53406338  0.33397870  1
  N  N57  1  0.77807199  0.42906317  0.07575312  1
  N  N58  1  0.56966511  0.51069414  0.82632246  1
  N  N59  1  0.43617853  0.43835354  0.57941679  1
  N  N60  1  0.22601415  0.86772215  0.38716665  1
  N  N61  1  0.10959288  0.75815314  0.10830158  1
  N  N62  1  0.88898828  0.87259069  0.88089934  1
  N  N63  1  0.77092251  0.78334791  0.63494386  1
  N  N64  1  0.57932454  0.85723424  0.38476772  1
  N  N65  1  0.44548394  0.75931531  0.10231864  1
  N  N66  1  0.21480540  0.86130704  0.86785048  1
  N  N67  1  0.09306941  0.75619358  0.60460590  1
  N  N68  1  0.86292513  0.88964655  0.37933924  1
  N  N69  1  0.78072374  0.76166255  0.13069117  1
  N  N70  1  0.58608644  0.86013300  0.88982128  1
  N  N71  1  0.47175319  0.75068791  0.62676259  1
