# generated using pymatgen
data_Sc5Al13N18
_symmetry_space_group_name_H-M   'P 1'
_cell_length_a   9.86939236
_cell_length_b   9.82502342
_cell_length_c   10.27210393
_cell_angle_alpha   89.47547903
_cell_angle_beta   90.06885653
_cell_angle_gamma   60.09523230
_symmetry_Int_Tables_number   1
_chemical_formula_structural   Sc5Al13N18
_chemical_formula_sum   'Sc10 Al26 N36'
_cell_volume   863.38042691
_cell_formula_units_Z   2
loop_
 _symmetry_equiv_pos_site_id
 _symmetry_equiv_pos_as_xyz
  1  'x, y, z'
loop_
 _atom_site_type_symbol
 _atom_site_label
 _atom_site_symmetry_multiplicity
 _atom_site_fract_x
 _atom_site_fract_y
 _atom_site_fract_z
 _atom_site_occupancy
  Sc  Sc0  1  0.09925558  0.09971959  0.30885583  1
  Sc  Sc1  1  0.44864763  0.09988392  0.32231275  1
  Sc  Sc2  1  0.09925668  0.10237261  0.83707343  1
  Sc  Sc3  1  0.21759811  0.21256065  0.57110031  1
  Sc  Sc4  1  0.45330607  0.09681847  0.82211144  1
  Sc  Sc5  1  0.88128423  0.54668339  0.57022478  1
  Sc  Sc6  1  0.10516184  0.75515220  0.34008417  1
  Sc  Sc7  1  0.45099837  0.75836623  0.32509060  1
  Sc  Sc8  1  0.22322510  0.87056091  0.58680309  1
  Sc  Sc9  1  0.45662059  0.75338064  0.84363159  1
  Al  Al10  1  0.22212145  0.21185728  0.06168432  1
  Al  Al11  1  0.77636421  0.09728133  0.81733441  1
  Al  Al12  1  0.87684731  0.20875334  0.56722950  1
  Al  Al13  1  0.56413132  0.20006350  0.06546860  1
  Al  Al14  1  0.77200683  0.10075220  0.31860689  1
  Al  Al15  1  0.87890769  0.20959886  0.06390708  1
  Al  Al16  1  0.56539958  0.20205178  0.56628066  1
  Al  Al17  1  0.10483520  0.42655786  0.30487187  1
  Al  Al18  1  0.22982882  0.53343879  0.12945669  1
  Al  Al19  1  0.78022139  0.42056134  0.81740668  1
  Al  Al20  1  0.44576199  0.42943420  0.38453801  1
  Al  Al21  1  0.55651075  0.52902730  0.12719087  1
  Al  Al22  1  0.10538195  0.43553727  0.82316282  1
  Al  Al23  1  0.22827454  0.53764505  0.63972646  1
  Al  Al24  1  0.78203900  0.42321979  0.31159265  1
  Al  Al25  1  0.88783257  0.53944158  0.06368706  1
  Al  Al26  1  0.44297472  0.43070704  0.88794658  1
  Al  Al27  1  0.55488189  0.52959849  0.63800931  1
  Al  Al28  1  0.21970157  0.86552189  0.06168087  1
  Al  Al29  1  0.78467529  0.76324069  0.82089578  1
  Al  Al30  1  0.87634826  0.88159703  0.56981674  1
  Al  Al31  1  0.56509562  0.87102459  0.06762146  1
  Al  Al32  1  0.10215548  0.75982890  0.82786678  1
  Al  Al33  1  0.78081100  0.76136213  0.31300270  1
  Al  Al34  1  0.89028355  0.87252337  0.06882710  1
  Al  Al35  1  0.56757476  0.87010779  0.56897160  1
  N  N36  1  0.20870204  0.22136783  0.36603683  1
  N  N37  1  0.10976288  0.09346566  0.09523169  1
  N  N38  1  0.86451505  0.21570791  0.88246374  1
  N  N39  1  0.77621156  0.09621869  0.62970633  1
  N  N40  1  0.56868371  0.21083342  0.38070828  1
  N  N41  1  0.44627192  0.09518872  0.10974703  1
  N  N42  1  0.21710943  0.22610490  0.87742812  1
  N  N43  1  0.08587600  0.10869897  0.62842462  1
  N  N44  1  0.86934367  0.21552437  0.37925046  1
  N  N45  1  0.77886489  0.09351665  0.12920018  1
  N  N46  1  0.57057492  0.20858012  0.87980404  1
  N  N47  1  0.46123547  0.08891460  0.61087522  1
  N  N48  1  0.24078139  0.51050365  0.31902286  1
  N  N49  1  0.10627765  0.42853238  0.11535103  1
  N  N50  1  0.88587087  0.54011703  0.87261001  1
  N  N51  1  0.77438613  0.41575450  0.62866983  1
  N  N52  1  0.56202129  0.51713305  0.31647499  1
  N  N53  1  0.44274418  0.42940884  0.07467089  1
  N  N54  1  0.22843339  0.53812281  0.83287560  1
  N  N55  1  0.11052028  0.43853774  0.63641618  1
  N  N56  1  0.88960035  0.53918988  0.35956322  1
  N  N57  1  0.78474731  0.42402627  0.12062464  1
  N  N58  1  0.56170225  0.51546541  0.82773917  1
  N  N59  1  0.43824168  0.43605290  0.57557092  1
  N  N60  1  0.22163056  0.87423864  0.38169674  1
  N  N61  1  0.10894839  0.76184467  0.11951590  1
  N  N62  1  0.88924333  0.87474155  0.87963607  1
  N  N63  1  0.77159708  0.78067335  0.63675911  1
  N  N64  1  0.57919691  0.86134126  0.38234343  1
  N  N65  1  0.44612504  0.76050866  0.10234564  1
  N  N66  1  0.21434217  0.85847133  0.87292008  1
  N  N67  1  0.09384841  0.75629291  0.61553124  1
  N  N68  1  0.86455487  0.88678965  0.38076161  1
  N  N69  1  0.78214336  0.76033659  0.12545189  1
  N  N70  1  0.58278050  0.86477100  0.88683762  1
  N  N71  1  0.46950849  0.75242107  0.62230751  1
