# generated using pymatgen
data_Sc5Al13N18
_symmetry_space_group_name_H-M   'P 1'
_cell_length_a   9.92007651
_cell_length_b   9.92125640
_cell_length_c   10.03503070
_cell_angle_alpha   89.53281557
_cell_angle_beta   89.68749989
_cell_angle_gamma   60.24832830
_symmetry_Int_Tables_number   1
_chemical_formula_structural   Sc5Al13N18
_chemical_formula_sum   'Sc10 Al26 N36'
_cell_volume   857.42736076
_cell_formula_units_Z   2
loop_
 _symmetry_equiv_pos_site_id
 _symmetry_equiv_pos_as_xyz
  1  'x, y, z'
loop_
 _atom_site_type_symbol
 _atom_site_label
 _atom_site_symmetry_multiplicity
 _atom_site_fract_x
 _atom_site_fract_y
 _atom_site_fract_z
 _atom_site_occupancy
  Sc  Sc0  1  0.09447813  0.10467702  0.36754500  1
  Sc  Sc1  1  0.45173959  0.09507985  0.34070414  1
  Sc  Sc2  1  0.10265251  0.09941860  0.88174964  1
  Sc  Sc3  1  0.21940961  0.21407056  0.61842130  1
  Sc  Sc4  1  0.45046859  0.09467159  0.85036060  1
  Sc  Sc5  1  0.88381323  0.54216406  0.61138362  1
  Sc  Sc6  1  0.10467200  0.75239762  0.35834866  1
  Sc  Sc7  1  0.45596576  0.74669623  0.36932657  1
  Sc  Sc8  1  0.21604717  0.86787917  0.62382612  1
  Sc  Sc9  1  0.45282821  0.74933739  0.86797790  1
  Al  Al10  1  0.21713248  0.21400112  0.13299594  1
  Al  Al11  1  0.77805980  0.09110466  0.82388902  1
  Al  Al12  1  0.87600915  0.21297192  0.63602892  1
  Al  Al13  1  0.55987816  0.20679923  0.07517003  1
  Al  Al14  1  0.76893444  0.09879515  0.31196250  1
  Al  Al15  1  0.88184108  0.21362206  0.12797939  1
  Al  Al16  1  0.56341385  0.20573622  0.58060949  1
  Al  Al17  1  0.11332420  0.43320059  0.37682184  1
  Al  Al18  1  0.22974280  0.52994826  0.12883827  1
  Al  Al19  1  0.77845965  0.42896004  0.88384026  1
  Al  Al20  1  0.44571657  0.42699379  0.38203801  1
  Al  Al21  1  0.55849124  0.53158123  0.13175251  1
  Al  Al22  1  0.10422954  0.43708713  0.88486681  1
  Al  Al23  1  0.22075571  0.54285480  0.63471723  1
  Al  Al24  1  0.77106160  0.42153260  0.37978751  1
  Al  Al25  1  0.89105918  0.53479839  0.13426311  1
  Al  Al26  1  0.44622071  0.42914125  0.88115373  1
  Al  Al27  1  0.55932941  0.52719702  0.63429907  1
  Al  Al28  1  0.22562604  0.86976419  0.13371173  1
  Al  Al29  1  0.78723575  0.76279242  0.82222255  1
  Al  Al30  1  0.87641878  0.88363652  0.56640373  1
  Al  Al31  1  0.56671624  0.86589039  0.07562896  1
  Al  Al32  1  0.11348727  0.75320142  0.88963074  1
  Al  Al33  1  0.77980413  0.76415292  0.31924453  1
  Al  Al34  1  0.88334051  0.87463209  0.07073781  1
  Al  Al35  1  0.56938314  0.87035636  0.57350390  1
  N  N36  1  0.20962739  0.22658704  0.32580557  1
  N  N37  1  0.10872103  0.09688299  0.09795293  1
  N  N38  1  0.87113158  0.21917249  0.83026746  1
  N  N39  1  0.77599856  0.09235312  0.62947782  1
  N  N40  1  0.56619210  0.21487875  0.36729393  1
  N  N41  1  0.44482829  0.09460996  0.10533945  1
  N  N42  1  0.20899386  0.22902012  0.83029076  1
  N  N43  1  0.08511595  0.10738831  0.58284370  1
  N  N44  1  0.86521616  0.22032878  0.31581709  1
  N  N45  1  0.77677672  0.09109175  0.11723909  1
  N  N46  1  0.56880620  0.21154181  0.87402180  1
  N  N47  1  0.46282933  0.08722035  0.60637590  1
  N  N48  1  0.23959209  0.51417930  0.31555222  1
  N  N49  1  0.10825353  0.43150265  0.07755590  1
  N  N50  1  0.89013438  0.53773862  0.83207082  1
  N  N51  1  0.76428126  0.41659308  0.56833978  1
  N  N52  1  0.56491371  0.51522329  0.31882272  1
  N  N53  1  0.44337919  0.43244213  0.07355262  1
  N  N54  1  0.22271582  0.53926383  0.83023511  1
  N  N55  1  0.11855001  0.44419919  0.56384549  1
  N  N56  1  0.88989844  0.53545289  0.33526868  1
  N  N57  1  0.77742920  0.43153086  0.07568822  1
  N  N58  1  0.56900975  0.51504157  0.82352126  1
  N  N59  1  0.43864338  0.43384631  0.57907572  1
  N  N60  1  0.22269716  0.87062098  0.32507788  1
  N  N61  1  0.11401968  0.75625272  0.09076179  1
  N  N62  1  0.89056027  0.87250800  0.87995836  1
  N  N63  1  0.77254368  0.78360394  0.63294478  1
  N  N64  1  0.58059819  0.85891457  0.38200738  1
  N  N65  1  0.44830437  0.75682317  0.09722576  1
  N  N66  1  0.21238535  0.86215810  0.83514236  1
  N  N67  1  0.09852839  0.75163791  0.57501934  1
  N  N68  1  0.86131806  0.89164983  0.37343848  1
  N  N69  1  0.78172160  0.76144844  0.12879291  1
  N  N70  1  0.58482053  0.85759776  0.88697993  1
  N  N71  1  0.46604206  0.74839203  0.59854784  1
