# generated using pymatgen
data_Sc5Al13N18
_symmetry_space_group_name_H-M   'P 1'
_cell_length_a   9.92553265
_cell_length_b   9.92442914
_cell_length_c   10.02358785
_cell_angle_alpha   89.54932701
_cell_angle_beta   89.71058552
_cell_angle_gamma   60.24436034
_symmetry_Int_Tables_number   1
_chemical_formula_structural   Sc5Al13N18
_chemical_formula_sum   'Sc10 Al26 N36'
_cell_volume   857.16316094
_cell_formula_units_Z   2
loop_
 _symmetry_equiv_pos_site_id
 _symmetry_equiv_pos_as_xyz
  1  'x, y, z'
loop_
 _atom_site_type_symbol
 _atom_site_label
 _atom_site_symmetry_multiplicity
 _atom_site_fract_x
 _atom_site_fract_y
 _atom_site_fract_z
 _atom_site_occupancy
  Sc  Sc0  1  0.09456698  0.10476391  0.36742549  1
  Sc  Sc1  1  0.45136653  0.09521915  0.34391909  1
  Sc  Sc2  1  0.10271551  0.09939798  0.88168172  1
  Sc  Sc3  1  0.21943480  0.21401899  0.61879627  1
  Sc  Sc4  1  0.44944678  0.09512282  0.85505841  1
  Sc  Sc5  1  0.88392318  0.54217536  0.61118752  1
  Sc  Sc6  1  0.10469309  0.75244793  0.35811491  1
  Sc  Sc7  1  0.45587846  0.74674018  0.36908982  1
  Sc  Sc8  1  0.21599378  0.86792354  0.62366375  1
  Sc  Sc9  1  0.45280320  0.74937557  0.86780581  1
  Al  Al10  1  0.21714312  0.21392760  0.13323886  1
  Al  Al11  1  0.77893359  0.09077078  0.82491525  1
  Al  Al12  1  0.87624633  0.21302051  0.63594505  1
  Al  Al13  1  0.55840803  0.20804266  0.08530699  1
  Al  Al14  1  0.76977519  0.09831265  0.31138245  1
  Al  Al15  1  0.88204991  0.21356111  0.12763613  1
  Al  Al16  1  0.56160811  0.20710915  0.59505408  1
  Al  Al17  1  0.11339833  0.43324957  0.37667949  1
  Al  Al18  1  0.22962446  0.53004785  0.12880818  1
  Al  Al19  1  0.77842436  0.42908765  0.88375052  1
  Al  Al20  1  0.44644981  0.42555869  0.38140397  1
  Al  Al21  1  0.55863418  0.53158480  0.13181248  1
  Al  Al22  1  0.10416217  0.43722718  0.88476433  1
  Al  Al23  1  0.22056786  0.54286970  0.63459138  1
  Al  Al24  1  0.77106624  0.42156200  0.37962639  1
  Al  Al25  1  0.89114605  0.53477454  0.13421950  1
  Al  Al26  1  0.44653443  0.42871900  0.88128913  1
  Al  Al27  1  0.55963915  0.52725906  0.63414644  1
  Al  Al28  1  0.22559886  0.86979600  0.13363668  1
  Al  Al29  1  0.78720730  0.76277123  0.82220140  1
  Al  Al30  1  0.87637246  0.88363188  0.56618405  1
  Al  Al31  1  0.56688620  0.86545740  0.07589102  1
  Al  Al32  1  0.11362280  0.75307996  0.88945375  1
  Al  Al33  1  0.77986809  0.76408766  0.31923211  1
  Al  Al34  1  0.88351646  0.87449331  0.07043191  1
  Al  Al35  1  0.56964147  0.86995391  0.57349492  1
  N  N36  1  0.20942671  0.22675902  0.32576373  1
  N  N37  1  0.10881519  0.09687304  0.09798045  1
  N  N38  1  0.87129688  0.21924484  0.83035087  1
  N  N39  1  0.77677321  0.09216889  0.62893832  1
  N  N40  1  0.56406299  0.21668724  0.35211915  1
  N  N41  1  0.44424750  0.09432801  0.10382336  1
  N  N42  1  0.20874115  0.22916982  0.83032904  1
  N  N43  1  0.08523839  0.10741215  0.58299225  1
  N  N44  1  0.86541429  0.22024078  0.31580181  1
  N  N45  1  0.77798544  0.09074670  0.11534123  1
  N  N46  1  0.56761169  0.21262788  0.86653455  1
  N  N47  1  0.46265289  0.08733253  0.60400628  1
  N  N48  1  0.23941111  0.51451511  0.31571158  1
  N  N49  1  0.10830238  0.43151223  0.07755770  1
  N  N50  1  0.89015358  0.53775198  0.83203727  1
  N  N51  1  0.76442422  0.41661355  0.56841317  1
  N  N52  1  0.56491391  0.51544287  0.31912086  1
  N  N53  1  0.44350686  0.43230063  0.07302102  1
  N  N54  1  0.22285055  0.53923310  0.83010102  1
  N  N55  1  0.11866941  0.44403387  0.56396265  1
  N  N56  1  0.89000729  0.53542631  0.33533223  1
  N  N57  1  0.77744141  0.43160124  0.07573616  1
  N  N58  1  0.56898237  0.51518633  0.82350057  1
  N  N59  1  0.43956420  0.43245119  0.57856178  1
  N  N60  1  0.22257725  0.87072017  0.32516205  1
  N  N61  1  0.11414463  0.75614174  0.09070533  1
  N  N62  1  0.89083254  0.87213740  0.87961048  1
  N  N63  1  0.77257988  0.78366155  0.63282571  1
  N  N64  1  0.58097464  0.85822496  0.38186079  1
  N  N65  1  0.44829921  0.75670967  0.09730284  1
  N  N66  1  0.21234314  0.86217796  0.83515174  1
  N  N67  1  0.09863039  0.75152890  0.57500701  1
  N  N68  1  0.86132227  0.89166830  0.37328661  1
  N  N69  1  0.78185392  0.76142250  0.12864002  1
  N  N70  1  0.58498115  0.85730003  0.88682989  1
  N  N71  1  0.46594357  0.74834672  0.59863319  1
