# generated using pymatgen
data_Sc5Al13N18
_symmetry_space_group_name_H-M   'P 1'
_cell_length_a   9.83552224
_cell_length_b   9.81694196
_cell_length_c   10.40480187
_cell_angle_alpha   89.13018899
_cell_angle_beta   89.78260215
_cell_angle_gamma   59.90239822
_symmetry_Int_Tables_number   1
_chemical_formula_structural   Sc5Al13N18
_chemical_formula_sum   'Sc10 Al26 N36'
_cell_volume   869.07217976
_cell_formula_units_Z   2
loop_
 _symmetry_equiv_pos_site_id
 _symmetry_equiv_pos_as_xyz
  1  'x, y, z'
loop_
 _atom_site_type_symbol
 _atom_site_label
 _atom_site_symmetry_multiplicity
 _atom_site_fract_x
 _atom_site_fract_y
 _atom_site_fract_z
 _atom_site_occupancy
  Sc  Sc0  1  0.10202328  0.09931214  0.30134995  1
  Sc  Sc1  1  0.44964883  0.10029415  0.31462197  1
  Sc  Sc2  1  0.09916437  0.10372068  0.82672078  1
  Sc  Sc3  1  0.21758848  0.21432837  0.56275520  1
  Sc  Sc4  1  0.45226760  0.09779241  0.81540165  1
  Sc  Sc5  1  0.88333966  0.54899755  0.57150309  1
  Sc  Sc6  1  0.10418556  0.75765711  0.32266416  1
  Sc  Sc7  1  0.45144930  0.75873706  0.31369738  1
  Sc  Sc8  1  0.22354130  0.87001486  0.57669522  1
  Sc  Sc9  1  0.45613297  0.75322361  0.83231336  1
  Al  Al10  1  0.22130243  0.21117873  0.05574995  1
  Al  Al11  1  0.77588184  0.09756910  0.81094488  1
  Al  Al12  1  0.87924943  0.20101803  0.55829990  1
  Al  Al13  1  0.56376976  0.19920183  0.05822534  1
  Al  Al14  1  0.77279887  0.09704670  0.31204832  1
  Al  Al15  1  0.88288115  0.20078255  0.05908118  1
  Al  Al16  1  0.56400795  0.20342827  0.55970343  1
  Al  Al17  1  0.10335381  0.42749463  0.29957469  1
  Al  Al18  1  0.23174707  0.53157262  0.12238684  1
  Al  Al19  1  0.77168748  0.42917665  0.88158925  1
  Al  Al20  1  0.44448963  0.43058018  0.37894312  1
  Al  Al21  1  0.56254351  0.52491169  0.12462870  1
  Al  Al22  1  0.10767913  0.43610562  0.81860039  1
  Al  Al23  1  0.23046880  0.53806879  0.63775770  1
  Al  Al24  1  0.76996561  0.42641923  0.37530126  1
  Al  Al25  1  0.88933030  0.54414428  0.06023187  1
  Al  Al26  1  0.44542900  0.43102346  0.88198290  1
  Al  Al27  1  0.56108235  0.52641857  0.63042049  1
  Al  Al28  1  0.22053541  0.86462554  0.05297740  1
  Al  Al29  1  0.78359805  0.76588368  0.81541073  1
  Al  Al30  1  0.87721565  0.88144446  0.56586374  1
  Al  Al31  1  0.56356938  0.87050863  0.06117543  1
  Al  Al32  1  0.10107731  0.76317166  0.81546497  1
  Al  Al33  1  0.78102779  0.75969159  0.31019484  1
  Al  Al34  1  0.88976306  0.87169554  0.06013356  1
  Al  Al35  1  0.56577267  0.87152555  0.56306345  1
  N  N36  1  0.21005251  0.22171394  0.36088868  1
  N  N37  1  0.11036496  0.09215429  0.09142564  1
  N  N38  1  0.86742583  0.20945613  0.87680719  1
  N  N39  1  0.77467503  0.09690880  0.62539767  1
  N  N40  1  0.56892242  0.21066435  0.37642209  1
  N  N41  1  0.44574316  0.09483367  0.10475497  1
  N  N42  1  0.21613156  0.22676191  0.87444583  1
  N  N43  1  0.08610017  0.10936363  0.62114164  1
  N  N44  1  0.87521369  0.20325761  0.37007509  1
  N  N45  1  0.77819803  0.09058769  0.12425310  1
  N  N46  1  0.57000494  0.20818027  0.87502993  1
  N  N47  1  0.46023346  0.09016647  0.60674775  1
  N  N48  1  0.24067153  0.51166634  0.31044481  1
  N  N49  1  0.10618210  0.42772048  0.11206157  1
  N  N50  1  0.88888045  0.54482578  0.86790473  1
  N  N51  1  0.76174381  0.42265652  0.56237895  1
  N  N52  1  0.56585953  0.51425626  0.30800119  1
  N  N53  1  0.44514026  0.42965659  0.06721003  1
  N  N54  1  0.23125146  0.53837839  0.82778822  1
  N  N55  1  0.11383162  0.43758738  0.63414792  1
  N  N56  1  0.89031447  0.53927379  0.35893719  1
  N  N57  1  0.77518830  0.43015309  0.07010496  1
  N  N58  1  0.56993987  0.51019464  0.81435930  1
  N  N59  1  0.43685004  0.43869435  0.56810454  1
  N  N60  1  0.22263029  0.87127847  0.37490518  1
  N  N61  1  0.10861709  0.76165548  0.11186887  1
  N  N62  1  0.88814479  0.87567717  0.87408952  1
  N  N63  1  0.76940996  0.78354717  0.63322417  1
  N  N64  1  0.57724973  0.86161566  0.37852636  1
  N  N65  1  0.44579247  0.75963863  0.09806062  1
  N  N66  1  0.21405710  0.85968177  0.86812249  1
  N  N67  1  0.09219714  0.76043580  0.62349155  1
  N  N68  1  0.86649105  0.88331429  0.37871110  1
  N  N69  1  0.78135669  0.76129256  0.12273648  1
  N  N70  1  0.58071414  0.86459527  0.88241171  1
  N  N71  1  0.46813692  0.75399033  0.61942619  1
