# generated using pymatgen
data_Sc5Al13N18
_symmetry_space_group_name_H-M   'P 1'
_cell_length_a   9.87895315
_cell_length_b   9.83428542
_cell_length_c   10.27962390
_cell_angle_alpha   89.40978992
_cell_angle_beta   90.02824731
_cell_angle_gamma   59.96205999
_symmetry_Int_Tables_number   1
_chemical_formula_structural   Sc5Al13N18
_chemical_formula_sum   'Sc10 Al26 N36'
_cell_volume   864.49630053
_cell_formula_units_Z   2
loop_
 _symmetry_equiv_pos_site_id
 _symmetry_equiv_pos_as_xyz
  1  'x, y, z'
loop_
 _atom_site_type_symbol
 _atom_site_label
 _atom_site_symmetry_multiplicity
 _atom_site_fract_x
 _atom_site_fract_y
 _atom_site_fract_z
 _atom_site_occupancy
  Sc  Sc0  1  0.10119509  0.09839953  0.31723606  1
  Sc  Sc1  1  0.45244549  0.09700882  0.33140151  1
  Sc  Sc2  1  0.09716845  0.10409445  0.83364318  1
  Sc  Sc3  1  0.22001756  0.21194057  0.58711496  1
  Sc  Sc4  1  0.45761647  0.09274275  0.81998107  1
  Sc  Sc5  1  0.88326049  0.54038167  0.62357461  1
  Sc  Sc6  1  0.10317246  0.75810504  0.33122855  1
  Sc  Sc7  1  0.44975613  0.75817288  0.32171718  1
  Sc  Sc8  1  0.22348127  0.86860499  0.58821874  1
  Sc  Sc9  1  0.45606764  0.75220357  0.84431278  1
  Al  Al10  1  0.22515937  0.20622685  0.08740563  1
  Al  Al11  1  0.77592496  0.09905545  0.81959105  1
  Al  Al12  1  0.87516160  0.20396310  0.56385591  1
  Al  Al13  1  0.56264581  0.20105047  0.06640018  1
  Al  Al14  1  0.77174053  0.09855392  0.31809934  1
  Al  Al15  1  0.88214682  0.20293329  0.06885157  1
  Al  Al16  1  0.56453928  0.20604097  0.56686927  1
  Al  Al17  1  0.11063867  0.43553576  0.37897461  1
  Al  Al18  1  0.22950756  0.52963469  0.13004798  1
  Al  Al19  1  0.77501244  0.43247405  0.89006956  1
  Al  Al20  1  0.44487758  0.43182009  0.38441085  1
  Al  Al21  1  0.56055112  0.52605652  0.12892507  1
  Al  Al22  1  0.10673802  0.43800685  0.88596366  1
  Al  Al23  1  0.22409200  0.53751686  0.63786644  1
  Al  Al24  1  0.76970074  0.42902878  0.38022060  1
  Al  Al25  1  0.89159554  0.53418800  0.13602210  1
  Al  Al26  1  0.44382069  0.42981024  0.88479091  1
  Al  Al27  1  0.55983551  0.52804199  0.63762245  1
  Al  Al28  1  0.21957631  0.86427373  0.06054086  1
  Al  Al29  1  0.78382721  0.76566134  0.82438096  1
  Al  Al30  1  0.87662456  0.88216691  0.57370840  1
  Al  Al31  1  0.56603198  0.86907102  0.07054415  1
  Al  Al32  1  0.09997634  0.76129936  0.82102459  1
  Al  Al33  1  0.78002389  0.76368491  0.32012032  1
  Al  Al34  1  0.88948646  0.87153085  0.06801011  1
  Al  Al35  1  0.56841392  0.86741440  0.57037352  1
  N  N36  1  0.21346479  0.21844678  0.36273524  1
  N  N37  1  0.11131544  0.09368056  0.10099546  1
  N  N38  1  0.86648768  0.21202781  0.88570600  1
  N  N39  1  0.77379063  0.09885053  0.63255414  1
  N  N40  1  0.56918500  0.21333881  0.38154093  1
  N  N41  1  0.44699923  0.09438544  0.11452672  1
  N  N42  1  0.21781479  0.22601880  0.84328116  1
  N  N43  1  0.08147193  0.10997570  0.62378210  1
  N  N44  1  0.87170007  0.20652358  0.37451883  1
  N  N45  1  0.77778357  0.09175855  0.13000959  1
  N  N46  1  0.56986087  0.20791270  0.88127768  1
  N  N47  1  0.46500706  0.08806969  0.60705128  1
  N  N48  1  0.24010870  0.51149751  0.31517291  1
  N  N49  1  0.10927928  0.43109854  0.07623509  1
  N  N50  1  0.88973534  0.53666980  0.83621901  1
  N  N51  1  0.75963212  0.42636247  0.56665255  1
  N  N52  1  0.56504748  0.51539637  0.31384787  1
  N  N53  1  0.44227935  0.43130685  0.07271149  1
  N  N54  1  0.22575317  0.53359298  0.82809908  1
  N  N55  1  0.11292342  0.45311662  0.56247465  1
  N  N56  1  0.89161383  0.53239291  0.32873881  1
  N  N57  1  0.77698328  0.43317607  0.08009527  1
  N  N58  1  0.57042257  0.50978414  0.82413634  1
  N  N59  1  0.43610644  0.44061701  0.57604130  1
  N  N60  1  0.22305568  0.86828196  0.38415944  1
  N  N61  1  0.10819931  0.76173786  0.11897619  1
  N  N62  1  0.88844468  0.87497135  0.88101921  1
  N  N63  1  0.76938161  0.78515451  0.63882991  1
  N  N64  1  0.57953986  0.85576689  0.38565461  1
  N  N65  1  0.44490428  0.76031847  0.10316394  1
  N  N66  1  0.21294022  0.85846450  0.87363217  1
  N  N67  1  0.09059169  0.76158690  0.63014378  1
  N  N68  1  0.86569973  0.88548631  0.38568373  1
  N  N69  1  0.78081810  0.76500544  0.13175980  1
  N  N70  1  0.58329612  0.86135253  0.89087571  1
  N  N71  1  0.46823239  0.75463130  0.62851747  1
