# generated using pymatgen
data_Sc5Al13N18
_symmetry_space_group_name_H-M   'P 1'
_cell_length_a   9.84339834
_cell_length_b   9.80374629
_cell_length_c   10.32243856
_cell_angle_alpha   89.73943877
_cell_angle_beta   90.00739671
_cell_angle_gamma   60.19006313
_symmetry_Int_Tables_number   1
_chemical_formula_structural   Sc5Al13N18
_chemical_formula_sum   'Sc10 Al26 N36'
_cell_volume   864.31590314
_cell_formula_units_Z   2
loop_
 _symmetry_equiv_pos_site_id
 _symmetry_equiv_pos_as_xyz
  1  'x, y, z'
loop_
 _atom_site_type_symbol
 _atom_site_label
 _atom_site_symmetry_multiplicity
 _atom_site_fract_x
 _atom_site_fract_y
 _atom_site_fract_z
 _atom_site_occupancy
  Sc  Sc0  1  0.09896351  0.10128708  0.31062726  1
  Sc  Sc1  1  0.44862991  0.09750516  0.32080127  1
  Sc  Sc2  1  0.09934890  0.10253951  0.83533465  1
  Sc  Sc3  1  0.21868345  0.21368236  0.57204992  1
  Sc  Sc4  1  0.45331276  0.09578427  0.82314444  1
  Sc  Sc5  1  0.88431058  0.54503178  0.57266199  1
  Sc  Sc6  1  0.10342686  0.75200552  0.35974199  1
  Sc  Sc7  1  0.45257116  0.75252910  0.31896087  1
  Sc  Sc8  1  0.22046334  0.86941490  0.58380491  1
  Sc  Sc9  1  0.45862927  0.75135446  0.82663910  1
  Al  Al10  1  0.22169029  0.21260450  0.06198216  1
  Al  Al11  1  0.77860972  0.09515955  0.81805070  1
  Al  Al12  1  0.87574804  0.20886685  0.56896718  1
  Al  Al13  1  0.56297926  0.20155862  0.06609823  1
  Al  Al14  1  0.77004560  0.10218075  0.31947785  1
  Al  Al15  1  0.87843090  0.21023322  0.06565055  1
  Al  Al16  1  0.56412281  0.20154124  0.56937797  1
  Al  Al17  1  0.10421786  0.42719108  0.30535222  1
  Al  Al18  1  0.23283960  0.53114619  0.13185623  1
  Al  Al19  1  0.77498989  0.42346462  0.81882579  1
  Al  Al20  1  0.44131893  0.42675946  0.38904320  1
  Al  Al21  1  0.56384277  0.53415676  0.06713242  1
  Al  Al22  1  0.10500122  0.43623318  0.82547623  1
  Al  Al23  1  0.22449953  0.54469404  0.64354490  1
  Al  Al24  1  0.77619819  0.42611018  0.31633028  1
  Al  Al25  1  0.88749183  0.53972953  0.06616496  1
  Al  Al26  1  0.44332451  0.42909052  0.88790659  1
  Al  Al27  1  0.56217165  0.53262060  0.56925098  1
  Al  Al28  1  0.22690127  0.87002408  0.06280395  1
  Al  Al29  1  0.78574681  0.76277260  0.82154749  1
  Al  Al30  1  0.87563896  0.88033414  0.56702377  1
  Al  Al31  1  0.56378833  0.87016308  0.06559916  1
  Al  Al32  1  0.10978058  0.75175305  0.89241317  1
  Al  Al33  1  0.77837648  0.76117528  0.31358518  1
  Al  Al34  1  0.88158679  0.87693935  0.07227709  1
  Al  Al35  1  0.56747741  0.86905917  0.56676617  1
  N  N36  1  0.20947475  0.22332032  0.36806398  1
  N  N37  1  0.10920937  0.09517235  0.09786386  1
  N  N38  1  0.86517367  0.21597926  0.88408792  1
  N  N39  1  0.77721906  0.09388854  0.63074337  1
  N  N40  1  0.56664540  0.21013343  0.38274062  1
  N  N41  1  0.44620622  0.09453900  0.10876131  1
  N  N42  1  0.21695989  0.22686198  0.87905308  1
  N  N43  1  0.08574926  0.10888317  0.62749219  1
  N  N44  1  0.86869531  0.21554963  0.38098847  1
  N  N45  1  0.77743224  0.09500480  0.13075006  1
  N  N46  1  0.57122235  0.20873463  0.87966805  1
  N  N47  1  0.46155450  0.08607535  0.61332842  1
  N  N48  1  0.24079744  0.51247548  0.31624296  1
  N  N49  1  0.10553278  0.42846695  0.11712213  1
  N  N50  1  0.88640015  0.54043509  0.87564121  1
  N  N51  1  0.76846559  0.41813126  0.63399445  1
  N  N52  1  0.56947531  0.52062354  0.38061641  1
  N  N53  1  0.44348140  0.42751442  0.07881998  1
  N  N54  1  0.22731109  0.54305716  0.83501529  1
  N  N55  1  0.11099458  0.43878262  0.64161472  1
  N  N56  1  0.89000392  0.53988292  0.36203318  1
  N  N57  1  0.77898521  0.42704587  0.12795246  1
  N  N58  1  0.57109669  0.52085889  0.88252717  1
  N  N59  1  0.43552144  0.43214131  0.58271800  1
  N  N60  1  0.22281391  0.87456646  0.37680341  1
  N  N61  1  0.11197761  0.75642425  0.09228007  1
  N  N62  1  0.88710581  0.87583453  0.88313184  1
  N  N63  1  0.77162427  0.77961272  0.63735741  1
  N  N64  1  0.57610345  0.86023724  0.38186253  1
  N  N65  1  0.44833085  0.75954852  0.10644077  1
  N  N66  1  0.21934398  0.85986910  0.87374353  1
  N  N67  1  0.09709444  0.74753131  0.57547910  1
  N  N68  1  0.85856181  0.89003041  0.37677601  1
  N  N69  1  0.77967466  0.76044010  0.12674059  1
  N  N70  1  0.58130946  0.86280277  0.88557336  1
  N  N71  1  0.46924163  0.74894160  0.61770957  1
