# generated using pymatgen
data_Sc5Al13N18
_symmetry_space_group_name_H-M   'P 1'
_cell_length_a   9.89870428
_cell_length_b   9.85518838
_cell_length_c   10.21425150
_cell_angle_alpha   89.57401093
_cell_angle_beta   90.05035783
_cell_angle_gamma   60.02794507
_symmetry_Int_Tables_number   1
_chemical_formula_structural   Sc5Al13N18
_chemical_formula_sum   'Sc10 Al26 N36'
_cell_volume   863.14662278
_cell_formula_units_Z   2
loop_
 _symmetry_equiv_pos_site_id
 _symmetry_equiv_pos_as_xyz
  1  'x, y, z'
loop_
 _atom_site_type_symbol
 _atom_site_label
 _atom_site_symmetry_multiplicity
 _atom_site_fract_x
 _atom_site_fract_y
 _atom_site_fract_z
 _atom_site_occupancy
  Sc  Sc0  1  0.09874190  0.09510102  0.32251141  1
  Sc  Sc1  1  0.45606068  0.09424169  0.33692772  1
  Sc  Sc2  1  0.09800950  0.10533353  0.83939475  1
  Sc  Sc3  1  0.21910103  0.21452242  0.60520509  1
  Sc  Sc4  1  0.45728038  0.09254830  0.82519319  1
  Sc  Sc5  1  0.88461708  0.54011341  0.62246963  1
  Sc  Sc6  1  0.10349070  0.75748476  0.33488866  1
  Sc  Sc7  1  0.44975946  0.75736483  0.32446252  1
  Sc  Sc8  1  0.22376461  0.86804699  0.59301965  1
  Sc  Sc9  1  0.45663598  0.75138967  0.84717744  1
  Al  Al10  1  0.22181769  0.21248435  0.12946841  1
  Al  Al11  1  0.77635193  0.09860715  0.82169350  1
  Al  Al12  1  0.87433924  0.20449470  0.56611875  1
  Al  Al13  1  0.56191599  0.20157651  0.06884888  1
  Al  Al14  1  0.77110559  0.09872024  0.31920599  1
  Al  Al15  1  0.88215421  0.20340308  0.07166520  1
  Al  Al16  1  0.56452013  0.20621117  0.56948302  1
  Al  Al17  1  0.11157295  0.43455285  0.37639722  1
  Al  Al18  1  0.22922522  0.53122622  0.13026443  1
  Al  Al19  1  0.77540705  0.43226827  0.89092271  1
  Al  Al20  1  0.44499161  0.43177876  0.38554490  1
  Al  Al21  1  0.56031314  0.52641529  0.12983180  1
  Al  Al22  1  0.10876337  0.43418788  0.88737950  1
  Al  Al23  1  0.22424766  0.53642463  0.63814443  1
  Al  Al24  1  0.76931804  0.42940084  0.38101241  1
  Al  Al25  1  0.89112257  0.53507241  0.13630060  1
  Al  Al26  1  0.44387851  0.42965586  0.88554489  1
  Al  Al27  1  0.56017317  0.52795567  0.63906689  1
  Al  Al28  1  0.21886315  0.86564123  0.06258688  1
  Al  Al29  1  0.78451248  0.76442958  0.82620227  1
  Al  Al30  1  0.87626752  0.88232777  0.57526961  1
  Al  Al31  1  0.56548934  0.87020750  0.07304502  1
  Al  Al32  1  0.09987979  0.76046190  0.82277894  1
  Al  Al33  1  0.78041872  0.76334588  0.32167150  1
  Al  Al34  1  0.88943603  0.87185701  0.06990404  1
  Al  Al35  1  0.56879349  0.86625959  0.57261418  1
  N  N36  1  0.21117023  0.22332715  0.32926905  1
  N  N37  1  0.11056980  0.09385695  0.10338955  1
  N  N38  1  0.86672555  0.21224049  0.88677104  1
  N  N39  1  0.77377871  0.09856210  0.63389195  1
  N  N40  1  0.56912258  0.21394839  0.38278302  1
  N  N41  1  0.44807745  0.09437084  0.11643291  1
  N  N42  1  0.21581873  0.23033354  0.82230010  1
  N  N43  1  0.08124954  0.10975391  0.62260205  1
  N  N44  1  0.86967806  0.20779545  0.37546498  1
  N  N45  1  0.77735826  0.09213117  0.13072682  1
  N  N46  1  0.56982293  0.20830007  0.88196272  1
  N  N47  1  0.46488530  0.08727319  0.60576837  1
  N  N48  1  0.24052519  0.51287122  0.31664479  1
  N  N49  1  0.10986354  0.43043355  0.07745440  1
  N  N50  1  0.89053778  0.53603237  0.83743904  1
  N  N51  1  0.76012635  0.42622229  0.56890571  1
  N  N52  1  0.56491406  0.51551843  0.31583067  1
  N  N53  1  0.44222584  0.43150724  0.07433432  1
  N  N54  1  0.22544666  0.53355730  0.82986675  1
  N  N55  1  0.11553888  0.44958002  0.55941854  1
  N  N56  1  0.89108513  0.53336126  0.33101873  1
  N  N57  1  0.77682158  0.43340889  0.08213543  1
  N  N58  1  0.57061878  0.50973511  0.82638334  1
  N  N59  1  0.43666993  0.43980361  0.57836916  1
  N  N60  1  0.22411216  0.86685607  0.38771143  1
  N  N61  1  0.10799702  0.76245120  0.12041984  1
  N  N62  1  0.88845531  0.87491214  0.88197073  1
  N  N63  1  0.76996663  0.78425016  0.63953144  1
  N  N64  1  0.58029840  0.85425474  0.38684059  1
  N  N65  1  0.44452204  0.76046518  0.10431109  1
  N  N66  1  0.21272451  0.85912188  0.87323271  1
  N  N67  1  0.09051565  0.75988560  0.62998316  1
  N  N68  1  0.86506893  0.88641572  0.38636825  1
  N  N69  1  0.78105390  0.76487208  0.13257067  1
  N  N70  1  0.58370354  0.86070710  0.89205072  1
  N  N71  1  0.46889626  0.75352673  0.62962059  1
