# generated using pymatgen
data_Sc5Al13N18
_symmetry_space_group_name_H-M   'P 1'
_cell_length_a   9.87122170
_cell_length_b   9.82634598
_cell_length_c   10.35802604
_cell_angle_alpha   89.11447264
_cell_angle_beta   89.82589423
_cell_angle_gamma   59.85680056
_symmetry_Int_Tables_number   1
_chemical_formula_structural   Sc5Al13N18
_chemical_formula_sum   'Sc10 Al26 N36'
_cell_volume   868.72786883
_cell_formula_units_Z   2
loop_
 _symmetry_equiv_pos_site_id
 _symmetry_equiv_pos_as_xyz
  1  'x, y, z'
loop_
 _atom_site_type_symbol
 _atom_site_label
 _atom_site_symmetry_multiplicity
 _atom_site_fract_x
 _atom_site_fract_y
 _atom_site_fract_z
 _atom_site_occupancy
  Sc  Sc0  1  0.10214390  0.09731212  0.30347163  1
  Sc  Sc1  1  0.45303677  0.09805103  0.31619918  1
  Sc  Sc2  1  0.09686968  0.10573139  0.82835674  1
  Sc  Sc3  1  0.21967478  0.21239383  0.56318313  1
  Sc  Sc4  1  0.45250934  0.09749588  0.81662445  1
  Sc  Sc5  1  0.88324180  0.53960833  0.61693629  1
  Sc  Sc6  1  0.10512250  0.75681168  0.32619912  1
  Sc  Sc7  1  0.45129634  0.75834869  0.31673042  1
  Sc  Sc8  1  0.22355111  0.87122328  0.58075027  1
  Sc  Sc9  1  0.45588964  0.75343023  0.83519618  1
  Al  Al10  1  0.22372964  0.20693538  0.05940450  1
  Al  Al11  1  0.77586909  0.09879883  0.81267231  1
  Al  Al12  1  0.87809921  0.20213150  0.55866592  1
  Al  Al13  1  0.56365484  0.19963140  0.05928145  1
  Al  Al14  1  0.77286425  0.09750665  0.31353865  1
  Al  Al15  1  0.88206192  0.20120521  0.06156989  1
  Al  Al16  1  0.56440513  0.20386068  0.56252476  1
  Al  Al17  1  0.11152267  0.42509571  0.31623843  1
  Al  Al18  1  0.23158127  0.53220546  0.12326990  1
  Al  Al19  1  0.77353330  0.43271414  0.88510469  1
  Al  Al20  1  0.44606971  0.43016524  0.38137429  1
  Al  Al21  1  0.55994575  0.52607426  0.12520517  1
  Al  Al22  1  0.10513879  0.44098493  0.86064092  1
  Al  Al23  1  0.22781833  0.53697216  0.63646518  1
  Al  Al24  1  0.76988139  0.42691611  0.37589033  1
  Al  Al25  1  0.88304861  0.53851203  0.12708130  1
  Al  Al26  1  0.44588983  0.43066644  0.88133250  1
  Al  Al27  1  0.56089207  0.52708278  0.63153064  1
  Al  Al28  1  0.21965307  0.86472982  0.05444404  1
  Al  Al29  1  0.78222071  0.76807031  0.81718417  1
  Al  Al30  1  0.87860760  0.88068544  0.56804033  1
  Al  Al31  1  0.56407362  0.87048422  0.06291343  1
  Al  Al32  1  0.10015935  0.76393189  0.81565730  1
  Al  Al33  1  0.77898981  0.76459121  0.31464207  1
  Al  Al34  1  0.88936861  0.87132568  0.06235038  1
  Al  Al35  1  0.56736154  0.87080505  0.56540461  1
  N  N36  1  0.21472733  0.21550343  0.35814292  1
  N  N37  1  0.10976569  0.09218698  0.09315006  1
  N  N38  1  0.86584395  0.21165880  0.87966685  1
  N  N39  1  0.77532412  0.09746614  0.62684748  1
  N  N40  1  0.56969088  0.21060691  0.37813219  1
  N  N41  1  0.44660297  0.09461276  0.10578449  1
  N  N42  1  0.21742067  0.22448529  0.87559990  1
  N  N43  1  0.08359418  0.11198696  0.62249082  1
  N  N44  1  0.87519184  0.20330666  0.36989500  1
  N  N45  1  0.77749521  0.09125230  0.12548476  1
  N  N46  1  0.56989654  0.20822077  0.87540591  1
  N  N47  1  0.46189110  0.08993584  0.60834854  1
  N  N48  1  0.24321027  0.51064470  0.31011368  1
  N  N49  1  0.10752883  0.43029367  0.09928749  1
  N  N50  1  0.88642613  0.53899043  0.83386425  1
  N  N51  1  0.76011821  0.42416668  0.56008444  1
  N  N52  1  0.56524100  0.51437782  0.30888502  1
  N  N53  1  0.44422301  0.43040422  0.06722504  1
  N  N54  1  0.22815803  0.53655986  0.82823413  1
  N  N55  1  0.11662939  0.44312528  0.59566216  1
  N  N56  1  0.88693809  0.53316077  0.32196560  1
  N  N57  1  0.77474345  0.43256494  0.07310220  1
  N  N58  1  0.57052531  0.51057361  0.81712857  1
  N  N59  1  0.43769380  0.43964113  0.57098096  1
  N  N60  1  0.22320744  0.86982039  0.37775527  1
  N  N61  1  0.10816310  0.76232450  0.11423965  1
  N  N62  1  0.88838458  0.87502133  0.87602045  1
  N  N63  1  0.76937466  0.78612671  0.63321692  1
  N  N64  1  0.57777912  0.86015055  0.38103714  1
  N  N65  1  0.44489347  0.76051903  0.09919830  1
  N  N66  1  0.21326066  0.85995227  0.86873115  1
  N  N67  1  0.09303725  0.76205081  0.62597220  1
  N  N68  1  0.86773102  0.88318201  0.38059334  1
  N  N69  1  0.77768397  0.76748441  0.12642459  1
  N  N70  1  0.58115651  0.86406362  0.88396559  1
  N  N71  1  0.46858518  0.75471742  0.62172643  1
