# generated using pymatgen
data_Sc5Al13N18
_symmetry_space_group_name_H-M   'P 1'
_cell_length_a   9.92829708
_cell_length_b   9.92360618
_cell_length_c   10.02162479
_cell_angle_alpha   89.58245403
_cell_angle_beta   89.74482950
_cell_angle_gamma   60.23753637
_symmetry_Int_Tables_number   1
_chemical_formula_structural   Sc5Al13N18
_chemical_formula_sum   'Sc10 Al26 N36'
_cell_volume   857.10863250
_cell_formula_units_Z   2
loop_
 _symmetry_equiv_pos_site_id
 _symmetry_equiv_pos_as_xyz
  1  'x, y, z'
loop_
 _atom_site_type_symbol
 _atom_site_label
 _atom_site_symmetry_multiplicity
 _atom_site_fract_x
 _atom_site_fract_y
 _atom_site_fract_z
 _atom_site_occupancy
  Sc  Sc0  1  0.09473685  0.10481576  0.36746550  1
  Sc  Sc1  1  0.45091692  0.09555517  0.34975913  1
  Sc  Sc2  1  0.10280745  0.09939310  0.88170778  1
  Sc  Sc3  1  0.21987063  0.21382436  0.61938485  1
  Sc  Sc4  1  0.44837810  0.09618534  0.86160666  1
  Sc  Sc5  1  0.88407297  0.54209985  0.61115673  1
  Sc  Sc6  1  0.10480610  0.75230360  0.35801447  1
  Sc  Sc7  1  0.45575104  0.74657105  0.36902880  1
  Sc  Sc8  1  0.21587047  0.86799481  0.62360008  1
  Sc  Sc9  1  0.45273790  0.74949364  0.86762407  1
  Al  Al10  1  0.21734755  0.21373384  0.13351959  1
  Al  Al11  1  0.78050450  0.09006756  0.82548345  1
  Al  Al12  1  0.87645822  0.21281349  0.63560965  1
  Al  Al13  1  0.55544347  0.21102567  0.11109296  1
  Al  Al14  1  0.77140239  0.09738243  0.31130418  1
  Al  Al15  1  0.88211427  0.21339438  0.12717932  1
  Al  Al16  1  0.55926509  0.20916031  0.62187548  1
  Al  Al17  1  0.11351249  0.43321862  0.37659225  1
  Al  Al18  1  0.22953414  0.53009119  0.12850703  1
  Al  Al19  1  0.77834669  0.42926381  0.88367678  1
  Al  Al20  1  0.44759059  0.42332075  0.38130260  1
  Al  Al21  1  0.55882661  0.53146906  0.13164149  1
  Al  Al22  1  0.10414209  0.43736883  0.88466426  1
  Al  Al23  1  0.22068164  0.54271453  0.63422483  1
  Al  Al24  1  0.77108882  0.42171238  0.37957654  1
  Al  Al25  1  0.89124547  0.53471744  0.13411781  1
  Al  Al26  1  0.44719584  0.42752114  0.88123445  1
  Al  Al27  1  0.55983540  0.52711918  0.63388702  1
  Al  Al28  1  0.22554465  0.86982150  0.13358990  1
  Al  Al29  1  0.78708484  0.76280860  0.82206088  1
  Al  Al30  1  0.87624547  0.88385667  0.56601293  1
  Al  Al31  1  0.56706492  0.86514532  0.07620187  1
  Al  Al32  1  0.11378331  0.75289198  0.88927119  1
  Al  Al33  1  0.77985050  0.76396580  0.31905319  1
  Al  Al34  1  0.88345345  0.87460325  0.06999252  1
  Al  Al35  1  0.56976513  0.86980272  0.57354238  1
  N  N36  1  0.20968840  0.22660102  0.32559603  1
  N  N37  1  0.10888569  0.09689173  0.09803547  1
  N  N38  1  0.87143355  0.21934136  0.83047857  1
  N  N39  1  0.77844754  0.09146233  0.62732776  1
  N  N40  1  0.56092947  0.21932531  0.32739241  1
  N  N41  1  0.44383919  0.09437812  0.10176995  1
  N  N42  1  0.20883480  0.22908614  0.83043708  1
  N  N43  1  0.08556429  0.10751410  0.58299469  1
  N  N44  1  0.86541770  0.22013282  0.31586304  1
  N  N45  1  0.77890620  0.09056153  0.11272687  1
  N  N46  1  0.56471116  0.21531897  0.84421909  1
  N  N47  1  0.46266542  0.08796696  0.59945231  1
  N  N48  1  0.23958242  0.51447660  0.31560781  1
  N  N49  1  0.10834489  0.43146539  0.07750010  1
  N  N50  1  0.89018917  0.53773767  0.83201953  1
  N  N51  1  0.76460732  0.41668269  0.56839749  1
  N  N52  1  0.56491814  0.51522190  0.31924973  1
  N  N53  1  0.44424926  0.43088232  0.07145987  1
  N  N54  1  0.22297780  0.53918240  0.82984116  1
  N  N55  1  0.11876004  0.44382662  0.56391539  1
  N  N56  1  0.89015138  0.53532010  0.33525869  1
  N  N57  1  0.77749229  0.43163964  0.07575664  1
  N  N58  1  0.56891386  0.51543020  0.82352188  1
  N  N59  1  0.44082605  0.43042138  0.57715442  1
  N  N60  1  0.22243006  0.87078366  0.32514471  1
  N  N61  1  0.11432524  0.75596055  0.09056259  1
  N  N62  1  0.89100812  0.87175485  0.87930350  1
  N  N63  1  0.77257301  0.78369595  0.63270758  1
  N  N64  1  0.58112893  0.85768266  0.38144487  1
  N  N65  1  0.44830304  0.75654438  0.09732973  1
  N  N66  1  0.21221915  0.86223600  0.83513042  1
  N  N67  1  0.09880643  0.75131618  0.57477220  1
  N  N68  1  0.86109624  0.89171897  0.37314297  1
  N  N69  1  0.78197094  0.76139194  0.12851597  1
  N  N70  1  0.58499445  0.85734840  0.88670305  1
  N  N71  1  0.46585585  0.74831250  0.59859578  1
