# generated using pymatgen
data_Sc5Al13N18
_symmetry_space_group_name_H-M   'P 1'
_cell_length_a   9.92253286
_cell_length_b   9.91710003
_cell_length_c   10.04379053
_cell_angle_alpha   89.61371345
_cell_angle_beta   89.78265607
_cell_angle_gamma   60.22499944
_symmetry_Int_Tables_number   1
_chemical_formula_structural   Sc5Al13N18
_chemical_formula_sum   'Sc10 Al26 N36'
_cell_volume   857.83899465
_cell_formula_units_Z   2
loop_
 _symmetry_equiv_pos_site_id
 _symmetry_equiv_pos_as_xyz
  1  'x, y, z'
loop_
 _atom_site_type_symbol
 _atom_site_label
 _atom_site_symmetry_multiplicity
 _atom_site_fract_x
 _atom_site_fract_y
 _atom_site_fract_z
 _atom_site_occupancy
  Sc  Sc0  1  0.09506739  0.10483905  0.36781887  1
  Sc  Sc1  1  0.45085372  0.09625214  0.35665447  1
  Sc  Sc2  1  0.10277678  0.09939043  0.88209206  1
  Sc  Sc3  1  0.22076318  0.21343180  0.62070868  1
  Sc  Sc4  1  0.44760010  0.09807981  0.86889016  1
  Sc  Sc5  1  0.88431349  0.54190260  0.61141109  1
  Sc  Sc6  1  0.10485571  0.75202482  0.35813162  1
  Sc  Sc7  1  0.45549503  0.74623336  0.36923789  1
  Sc  Sc8  1  0.21565601  0.86805963  0.62382823  1
  Sc  Sc9  1  0.45259756  0.74979475  0.86764497  1
  Al  Al10  1  0.21788795  0.21339736  0.13426527  1
  Al  Al11  1  0.78105859  0.08974048  0.82468539  1
  Al  Al12  1  0.87664321  0.21258311  0.63525709  1
  Al  Al13  1  0.55362680  0.21295977  0.12317123  1
  Al  Al14  1  0.77241169  0.09674642  0.31136033  1
  Al  Al15  1  0.88205881  0.21319772  0.12708747  1
  Al  Al16  1  0.55827743  0.20994308  0.63183976  1
  Al  Al17  1  0.11376209  0.43287319  0.37668294  1
  Al  Al18  1  0.22958190  0.52999065  0.12823014  1
  Al  Al19  1  0.77827232  0.42936170  0.88372364  1
  Al  Al20  1  0.44814072  0.42248035  0.38174919  1
  Al  Al21  1  0.55890561  0.53119620  0.13135740  1
  Al  Al22  1  0.10411262  0.43750252  0.88480310  1
  Al  Al23  1  0.22107058  0.54243409  0.63380051  1
  Al  Al24  1  0.77119185  0.42180336  0.37959487  1
  Al  Al25  1  0.89146024  0.53449495  0.13409890  1
  Al  Al26  1  0.44757781  0.42676131  0.88082229  1
  Al  Al27  1  0.55980584  0.52689617  0.63375295  1
  Al  Al28  1  0.22541756  0.86981967  0.13367493  1
  Al  Al29  1  0.78664549  0.76313685  0.82179569  1
  Al  Al30  1  0.87607883  0.88401285  0.56575460  1
  Al  Al31  1  0.56716096  0.86492314  0.07680621  1
  Al  Al32  1  0.11384621  0.75273566  0.88923669  1
  Al  Al33  1  0.77974282  0.76379386  0.31861732  1
  Al  Al34  1  0.88309238  0.87499792  0.06954809  1
  Al  Al35  1  0.56975817  0.86965452  0.57337502  1
  N  N36  1  0.21037647  0.22614315  0.32526382  1
  N  N37  1  0.10899223  0.09684729  0.09795121  1
  N  N38  1  0.87131217  0.21941874  0.83027798  1
  N  N39  1  0.77943504  0.09094502  0.62636966  1
  N  N40  1  0.55987051  0.22039633  0.31942080  1
  N  N41  1  0.44385017  0.09502166  0.10043276  1
  N  N42  1  0.20943826  0.22868320  0.83087757  1
  N  N43  1  0.08605869  0.10772280  0.58287740  1
  N  N44  1  0.86551611  0.22002894  0.31575290  1
  N  N45  1  0.77851509  0.09089311  0.11187762  1
  N  N46  1  0.56244240  0.21717135  0.83148628  1
  N  N47  1  0.46277540  0.08889840  0.59387125  1
  N  N48  1  0.23994666  0.51409581  0.31519446  1
  N  N49  1  0.10844449  0.43129778  0.07730974  1
  N  N50  1  0.89013468  0.53776053  0.83188531  1
  N  N51  1  0.76471590  0.41677640  0.56812306  1
  N  N52  1  0.56498874  0.51475477  0.31882722  1
  N  N53  1  0.44484544  0.42940878  0.07025792  1
  N  N54  1  0.22298204  0.53911186  0.82940333  1
  N  N55  1  0.11902501  0.44334020  0.56369111  1
  N  N56  1  0.89039301  0.53506866  0.33491483  1
  N  N57  1  0.77758022  0.43157504  0.07553982  1
  N  N58  1  0.56880405  0.51557942  0.82336927  1
  N  N59  1  0.44126729  0.42973682  0.57621687  1
  N  N60  1  0.22215693  0.87078132  0.32478616  1
  N  N61  1  0.11441421  0.75581951  0.09012839  1
  N  N62  1  0.89077269  0.87179822  0.87923109  1
  N  N63  1  0.77240354  0.78379036  0.63282033  1
  N  N64  1  0.58103821  0.85717000  0.38092189  1
  N  N65  1  0.44825694  0.75637456  0.09708240  1
  N  N66  1  0.21198916  0.86232914  0.83493332  1
  N  N67  1  0.09894531  0.75106125  0.57426051  1
  N  N68  1  0.86072823  0.89166458  0.37318904  1
  N  N69  1  0.78210653  0.76129777  0.12849106  1
  N  N70  1  0.58451647  0.85827284  0.88691863  1
  N  N71  1  0.46571777  0.74835962  0.59842791  1
