# generated using pymatgen
data_Sc5Al13N18
_symmetry_space_group_name_H-M   'P 1'
_cell_length_a   9.87248845
_cell_length_b   9.82668208
_cell_length_c   10.35997379
_cell_angle_alpha   89.12406089
_cell_angle_beta   89.82401538
_cell_angle_gamma   59.85941758
_symmetry_Int_Tables_number   1
_chemical_formula_structural   Sc5Al13N18
_chemical_formula_sum   'Sc10 Al26 N36'
_cell_volume   869.05837518
_cell_formula_units_Z   2
loop_
 _symmetry_equiv_pos_site_id
 _symmetry_equiv_pos_as_xyz
  1  'x, y, z'
loop_
 _atom_site_type_symbol
 _atom_site_label
 _atom_site_symmetry_multiplicity
 _atom_site_fract_x
 _atom_site_fract_y
 _atom_site_fract_z
 _atom_site_occupancy
  Sc  Sc0  1  0.10229176  0.09756964  0.30352197  1
  Sc  Sc1  1  0.45273644  0.09829143  0.31624021  1
  Sc  Sc2  1  0.09686139  0.10564660  0.82860515  1
  Sc  Sc3  1  0.21959329  0.21245320  0.56343772  1
  Sc  Sc4  1  0.45256058  0.09743954  0.81680077  1
  Sc  Sc5  1  0.88167680  0.54056544  0.61573784  1
  Sc  Sc6  1  0.10515618  0.75685567  0.32611015  1
  Sc  Sc7  1  0.45131632  0.75834546  0.31666334  1
  Sc  Sc8  1  0.22365010  0.87126640  0.58066809  1
  Sc  Sc9  1  0.45595060  0.75334295  0.83530618  1
  Al  Al10  1  0.22276547  0.20868130  0.05895618  1
  Al  Al11  1  0.77583943  0.09880337  0.81274160  1
  Al  Al12  1  0.87819807  0.20198668  0.55863815  1
  Al  Al13  1  0.56361114  0.19957906  0.05935477  1
  Al  Al14  1  0.77291368  0.09744311  0.31348959  1
  Al  Al15  1  0.88210270  0.20118181  0.06159156  1
  Al  Al16  1  0.56450187  0.20371210  0.56246471  1
  Al  Al17  1  0.11197308  0.42391199  0.30968508  1
  Al  Al18  1  0.23145569  0.53218855  0.12309027  1
  Al  Al19  1  0.77358968  0.43275321  0.88509316  1
  Al  Al20  1  0.44613538  0.43016497  0.38123282  1
  Al  Al21  1  0.55995056  0.52604038  0.12526939  1
  Al  Al22  1  0.10633008  0.43907620  0.84443014  1
  Al  Al23  1  0.22907071  0.53773492  0.63671759  1
  Al  Al24  1  0.76990848  0.42692762  0.37584336  1
  Al  Al25  1  0.88295031  0.53853673  0.12675782  1
  Al  Al26  1  0.44593255  0.43074334  0.88164963  1
  Al  Al27  1  0.56091001  0.52697430  0.63168518  1
  Al  Al28  1  0.21962878  0.86485365  0.05449348  1
  Al  Al29  1  0.78223958  0.76790489  0.81724337  1
  Al  Al30  1  0.87850285  0.88091702  0.56792729  1
  Al  Al31  1  0.56392160  0.87064365  0.06296711  1
  Al  Al32  1  0.10023644  0.76393731  0.81597921  1
  Al  Al33  1  0.77897772  0.76450824  0.31475104  1
  Al  Al34  1  0.88939222  0.87123055  0.06232215  1
  Al  Al35  1  0.56716989  0.87100331  0.56531266  1
  N  N36  1  0.21437286  0.21629031  0.35941883  1
  N  N37  1  0.10977365  0.09232824  0.09310025  1
  N  N38  1  0.86584414  0.21163653  0.87966878  1
  N  N39  1  0.77533417  0.09747533  0.62687881  1
  N  N40  1  0.56975280  0.21051808  0.37815068  1
  N  N41  1  0.44628117  0.09483437  0.10575915  1
  N  N42  1  0.21715962  0.22497593  0.87577226  1
  N  N43  1  0.08377691  0.11189987  0.62254352  1
  N  N44  1  0.87531517  0.20321041  0.36990727  1
  N  N45  1  0.77750398  0.09120079  0.12546968  1
  N  N46  1  0.56986881  0.20823350  0.87544065  1
  N  N47  1  0.46171005  0.08997803  0.60839090  1
  N  N48  1  0.24313115  0.51092088  0.31113416  1
  N  N49  1  0.10786434  0.42887246  0.10602212  1
  N  N50  1  0.88549671  0.53926136  0.83349666  1
  N  N51  1  0.75995979  0.42392561  0.56012192  1
  N  N52  1  0.56530855  0.51437579  0.30891788  1
  N  N53  1  0.44427094  0.43027949  0.06748552  1
  N  N54  1  0.22906556  0.53735490  0.82863425  1
  N  N55  1  0.11727892  0.44091392  0.60851664  1
  N  N56  1  0.88682103  0.53342293  0.32330831  1
  N  N57  1  0.77468700  0.43254254  0.07315414  1
  N  N58  1  0.57055701  0.51050637  0.81717581  1
  N  N59  1  0.43783372  0.43946399  0.57079374  1
  N  N60  1  0.22321895  0.87002587  0.37775478  1
  N  N61  1  0.10818620  0.76225948  0.11418481  1
  N  N62  1  0.88834756  0.87504833  0.87595176  1
  N  N63  1  0.76921890  0.78642243  0.63311386  1
  N  N64  1  0.57758485  0.86038799  0.38102097  1
  N  N65  1  0.44488522  0.76048553  0.09917929  1
  N  N66  1  0.21327999  0.86008997  0.86872099  1
  N  N67  1  0.09302420  0.76197006  0.62564365  1
  N  N68  1  0.86770850  0.88319447  0.38061435  1
  N  N69  1  0.77765936  0.76739856  0.12648404  1
  N  N70  1  0.58112557  0.86411533  0.88400037  1
  N  N71  1  0.46870411  0.75459377  0.62172850  1
