# generated using pymatgen
data_Sc5Al13N18
_symmetry_space_group_name_H-M   'P 1'
_cell_length_a   9.84210606
_cell_length_b   9.79194856
_cell_length_c   10.41585111
_cell_angle_alpha   89.20208659
_cell_angle_beta   89.93727189
_cell_angle_gamma   59.86972171
_symmetry_Int_Tables_number   1
_chemical_formula_structural   Sc5Al13N18
_chemical_formula_sum   'Sc10 Al26 N36'
_cell_volume   868.07795049
_cell_formula_units_Z   2
loop_
 _symmetry_equiv_pos_site_id
 _symmetry_equiv_pos_as_xyz
  1  'x, y, z'
loop_
 _atom_site_type_symbol
 _atom_site_label
 _atom_site_symmetry_multiplicity
 _atom_site_fract_x
 _atom_site_fract_y
 _atom_site_fract_z
 _atom_site_occupancy
  Sc  Sc0  1  0.10224281  0.10163240  0.30310659  1
  Sc  Sc1  1  0.44979284  0.10090439  0.31479935  1
  Sc  Sc2  1  0.09685523  0.10355965  0.82829878  1
  Sc  Sc3  1  0.22252518  0.20825802  0.56935863  1
  Sc  Sc4  1  0.45494205  0.09499048  0.81746397  1
  Sc  Sc5  1  0.88402102  0.53826276  0.62003404  1
  Sc  Sc6  1  0.10430653  0.75928180  0.32227587  1
  Sc  Sc7  1  0.45063973  0.75939598  0.31509465  1
  Sc  Sc8  1  0.22234526  0.87085470  0.57858141  1
  Sc  Sc9  1  0.45528337  0.75323886  0.83437927  1
  Al  Al10  1  0.22538583  0.20453984  0.05525896  1
  Al  Al11  1  0.77600718  0.09852685  0.81246302  1
  Al  Al12  1  0.87747493  0.20262983  0.55801052  1
  Al  Al13  1  0.56365578  0.20016343  0.05867772  1
  Al  Al14  1  0.77278966  0.09777318  0.31329103  1
  Al  Al15  1  0.88237009  0.20147395  0.06112481  1
  Al  Al16  1  0.56436067  0.20410830  0.56164790  1
  Al  Al17  1  0.10959821  0.43657761  0.37383167  1
  Al  Al18  1  0.22935868  0.52833660  0.12623133  1
  Al  Al19  1  0.77407552  0.43299281  0.88549702  1
  Al  Al20  1  0.44564496  0.43080733  0.38047384  1
  Al  Al21  1  0.56037145  0.52596103  0.12464815  1
  Al  Al22  1  0.10330192  0.44362123  0.88522352  1
  Al  Al23  1  0.22456882  0.53664043  0.63269554  1
  Al  Al24  1  0.77019896  0.42796574  0.37580634  1
  Al  Al25  1  0.89121327  0.53412504  0.13224955  1
  Al  Al26  1  0.44380380  0.43066658  0.88015297  1
  Al  Al27  1  0.55982270  0.52745152  0.63153920  1
  Al  Al28  1  0.22011615  0.86345324  0.05429085  1
  Al  Al29  1  0.78321964  0.76641166  0.81673545  1
  Al  Al30  1  0.87819342  0.88063470  0.56731462  1
  Al  Al31  1  0.56585955  0.86820562  0.06300315  1
  Al  Al32  1  0.10065283  0.76136136  0.81423546  1
  Al  Al33  1  0.77868393  0.76510262  0.31457988  1
  Al  Al34  1  0.88950910  0.87057485  0.06192886  1
  Al  Al35  1  0.56718723  0.87044367  0.56454608  1
  N  N36  1  0.21481669  0.21664337  0.36511677  1
  N  N37  1  0.11061973  0.09252320  0.09283431  1
  N  N38  1  0.86577854  0.21142843  0.88038571  1
  N  N39  1  0.77498029  0.09790126  0.62709318  1
  N  N40  1  0.56945218  0.21048341  0.37829965  1
  N  N41  1  0.44636564  0.09441254  0.10474979  1
  N  N42  1  0.21829953  0.22240798  0.86942379  1
  N  N43  1  0.08265916  0.11219505  0.62349378  1
  N  N44  1  0.87528661  0.20367588  0.37077864  1
  N  N45  1  0.77770173  0.09148554  0.12588578  1
  N  N46  1  0.57056701  0.20771173  0.87614799  1
  N  N47  1  0.46361334  0.08940763  0.61038480  1
  N  N48  1  0.24106982  0.51035282  0.30958940  1
  N  N49  1  0.10653493  0.43505212  0.07262541  1
  N  N50  1  0.88974785  0.53585651  0.82947105  1
  N  N51  1  0.75950686  0.42622383  0.55948733  1
  N  N52  1  0.56552071  0.51439063  0.30785421  1
  N  N53  1  0.44213556  0.43161143  0.06609305  1
  N  N54  1  0.22629982  0.53158127  0.82093060  1
  N  N55  1  0.11322547  0.45240783  0.55713678  1
  N  N56  1  0.89072612  0.53190900  0.32249126  1
  N  N57  1  0.77658337  0.43317807  0.07321743  1
  N  N58  1  0.57037875  0.50982388  0.81631727  1
  N  N59  1  0.43635924  0.44021890  0.56952058  1
  N  N60  1  0.22224962  0.87208058  0.37678454  1
  N  N61  1  0.10836014  0.76135996  0.11388253  1
  N  N62  1  0.88884104  0.87380015  0.87600873  1
  N  N63  1  0.76950569  0.78477264  0.63310940  1
  N  N64  1  0.57684216  0.86156932  0.38117162  1
  N  N65  1  0.44504082  0.76042016  0.09952609  1
  N  N66  1  0.21332626  0.85732543  0.86997243  1
  N  N67  1  0.09182544  0.76219873  0.62635108  1
  N  N68  1  0.86803315  0.88324316  0.38118994  1
  N  N69  1  0.77909395  0.76613430  0.12782004  1
  N  N70  1  0.58320715  0.86100934  0.88506976  1
  N  N71  1  0.46697149  0.75589749  0.62213443  1
