# generated using pymatgen
data_Sc5Al13N18
_symmetry_space_group_name_H-M   'P 1'
_cell_length_a   9.85705197
_cell_length_b   9.81053855
_cell_length_c   10.41772238
_cell_angle_alpha   89.15807662
_cell_angle_beta   89.78519626
_cell_angle_gamma   59.85931274
_symmetry_Int_Tables_number   1
_chemical_formula_structural   Sc5Al13N18
_chemical_formula_sum   'Sc10 Al26 N36'
_cell_volume   871.11434269
_cell_formula_units_Z   2
loop_
 _symmetry_equiv_pos_site_id
 _symmetry_equiv_pos_as_xyz
  1  'x, y, z'
loop_
 _atom_site_type_symbol
 _atom_site_label
 _atom_site_symmetry_multiplicity
 _atom_site_fract_x
 _atom_site_fract_y
 _atom_site_fract_z
 _atom_site_occupancy
  Sc  Sc0  1  0.10267181  0.09958524  0.30283538  1
  Sc  Sc1  1  0.45092362  0.10028900  0.31467165  1
  Sc  Sc2  1  0.09713324  0.10497384  0.82888484  1
  Sc  Sc3  1  0.22070684  0.21125377  0.56515820  1
  Sc  Sc4  1  0.45284538  0.09670667  0.81842027  1
  Sc  Sc5  1  0.87977905  0.54334935  0.60773795  1
  Sc  Sc6  1  0.10477822  0.75850761  0.32463528  1
  Sc  Sc7  1  0.45131236  0.75896337  0.31530322  1
  Sc  Sc8  1  0.22392750  0.87107873  0.57911351  1
  Sc  Sc9  1  0.45594353  0.75280522  0.83479838  1
  Al  Al10  1  0.21963673  0.21309107  0.05620813  1
  Al  Al11  1  0.77590366  0.09808308  0.81306366  1
  Al  Al12  1  0.87899062  0.20131906  0.55888840  1
  Al  Al13  1  0.56347994  0.19928864  0.05925289  1
  Al  Al14  1  0.77301487  0.09757681  0.31330185  1
  Al  Al15  1  0.88214248  0.20118409  0.06084915  1
  Al  Al16  1  0.56482677  0.20309464  0.56231277  1
  Al  Al17  1  0.11260578  0.42303054  0.30608847  1
  Al  Al18  1  0.23086170  0.53178562  0.12426439  1
  Al  Al19  1  0.77487988  0.43279943  0.88360477  1
  Al  Al20  1  0.44660340  0.43030155  0.38136942  1
  Al  Al21  1  0.56002694  0.52590750  0.12522789  1
  Al  Al22  1  0.10874464  0.43445409  0.81510705  1
  Al  Al23  1  0.23252682  0.53892234  0.63712163  1
  Al  Al24  1  0.76929333  0.42660948  0.37673898  1
  Al  Al25  1  0.88257511  0.53845367  0.12856356  1
  Al  Al26  1  0.44533704  0.43084607  0.88276802  1
  Al  Al27  1  0.56138941  0.52632342  0.63285626  1
  Al  Al28  1  0.21936758  0.86528533  0.05453951  1
  Al  Al29  1  0.78308676  0.76508495  0.81538627  1
  Al  Al30  1  0.87844151  0.88198100  0.56752060  1
  Al  Al31  1  0.56337398  0.87049796  0.06268380  1
  Al  Al32  1  0.10105920  0.76265118  0.81675585  1
  Al  Al33  1  0.77783019  0.76609543  0.31599995  1
  Al  Al34  1  0.88911317  0.87039453  0.06173542  1
  Al  Al35  1  0.56577261  0.87250578  0.56511147  1
  N  N36  1  0.21367929  0.21829552  0.36437845  1
  N  N37  1  0.10949260  0.09329057  0.09316850  1
  N  N38  1  0.86596740  0.21090946  0.88013432  1
  N  N39  1  0.77534773  0.09778388  0.62755602  1
  N  N40  1  0.56979695  0.20998100  0.37878152  1
  N  N41  1  0.44447244  0.09575766  0.10505616  1
  N  N42  1  0.21569286  0.22701799  0.87508621  1
  N  N43  1  0.08454438  0.11115189  0.62347004  1
  N  N44  1  0.87610923  0.20261529  0.37082141  1
  N  N45  1  0.77743919  0.09104316  0.12588144  1
  N  N46  1  0.57016575  0.20769814  0.87662341  1
  N  N47  1  0.46166961  0.09032735  0.61077255  1
  N  N48  1  0.24280340  0.51223078  0.31338801  1
  N  N49  1  0.10754946  0.42653702  0.11685113  1
  N  N50  1  0.88472260  0.53759266  0.82673580  1
  N  N51  1  0.75964794  0.42354755  0.55991860  1
  N  N52  1  0.56580003  0.51418628  0.30823907  1
  N  N53  1  0.44372360  0.43015568  0.06812847  1
  N  N54  1  0.23113716  0.53742559  0.82745174  1
  N  N55  1  0.12031549  0.43643445  0.62715627  1
  N  N56  1  0.88648436  0.53503425  0.32967341  1
  N  N57  1  0.77495771  0.43312330  0.07241799  1
  N  N58  1  0.57078888  0.50953860  0.81715103  1
  N  N59  1  0.43886075  0.43903702  0.56958490  1
  N  N60  1  0.22313502  0.87172900  0.37714310  1
  N  N61  1  0.10788033  0.76192143  0.11419572  1
  N  N62  1  0.88826166  0.87365882  0.87583680  1
  N  N63  1  0.76850499  0.78762524  0.63169895  1
  N  N64  1  0.57544962  0.86298468  0.38152390  1
  N  N65  1  0.44454457  0.76047593  0.09980957  1
  N  N66  1  0.21325960  0.85986929  0.87010076  1
  N  N67  1  0.09307444  0.76169746  0.62516775  1
  N  N68  1  0.86775559  0.88380080  0.38119764  1
  N  N69  1  0.77705216  0.76703332  0.12837879  1
  N  N70  1  0.58223541  0.86251179  0.88468902  1
  N  N71  1  0.46869566  0.75453146  0.62234150  1
