# generated using pymatgen
data_Sc5Al13N18
_symmetry_space_group_name_H-M   'P 1'
_cell_length_a   9.85153919
_cell_length_b   9.83118593
_cell_length_c   10.34944204
_cell_angle_alpha   89.17967949
_cell_angle_beta   89.82588488
_cell_angle_gamma   59.94241050
_symmetry_Int_Tables_number   1
_chemical_formula_structural   Sc5Al13N18
_chemical_formula_sum   'Sc10 Al26 N36'
_cell_volume   867.47263989
_cell_formula_units_Z   2
loop_
 _symmetry_equiv_pos_site_id
 _symmetry_equiv_pos_as_xyz
  1  'x, y, z'
loop_
 _atom_site_type_symbol
 _atom_site_label
 _atom_site_symmetry_multiplicity
 _atom_site_fract_x
 _atom_site_fract_y
 _atom_site_fract_z
 _atom_site_occupancy
  Sc  Sc0  1  0.10233350  0.09886329  0.30720213  1
  Sc  Sc1  1  0.44951148  0.10017890  0.32076546  1
  Sc  Sc2  1  0.09861977  0.10389510  0.83305667  1
  Sc  Sc3  1  0.21759831  0.21403946  0.56907093  1
  Sc  Sc4  1  0.45241192  0.09753142  0.82117250  1
  Sc  Sc5  1  0.88323360  0.54870330  0.57700394  1
  Sc  Sc6  1  0.10452776  0.75716257  0.32986417  1
  Sc  Sc7  1  0.45140909  0.75838995  0.32047137  1
  Sc  Sc8  1  0.22359602  0.87011843  0.58368102  1
  Sc  Sc9  1  0.45618160  0.75317599  0.83868894  1
  Al  Al10  1  0.22142879  0.21136680  0.06107594  1
  Al  Al11  1  0.77575637  0.09766173  0.81621627  1
  Al  Al12  1  0.87908339  0.20135156  0.56355055  1
  Al  Al13  1  0.56363965  0.19961063  0.06379044  1
  Al  Al14  1  0.77280946  0.09701900  0.31703933  1
  Al  Al15  1  0.88234387  0.20145161  0.06493034  1
  Al  Al16  1  0.56427495  0.20335255  0.56523319  1
  Al  Al17  1  0.10368281  0.42739301  0.30519316  1
  Al  Al18  1  0.23149596  0.53197210  0.12743941  1
  Al  Al19  1  0.77162733  0.42925811  0.88621646  1
  Al  Al20  1  0.44479492  0.43020424  0.38393738  1
  Al  Al21  1  0.56217573  0.52536961  0.12954389  1
  Al  Al22  1  0.10749542  0.43627280  0.82390366  1
  Al  Al23  1  0.23046940  0.53780892  0.64216547  1
  Al  Al24  1  0.77040630  0.42632807  0.37912461  1
  Al  Al25  1  0.88933347  0.54406250  0.06589604  1
  Al  Al26  1  0.44508531  0.43107210  0.88684182  1
  Al  Al27  1  0.56122676  0.52647875  0.63550030  1
  Al  Al28  1  0.22027890  0.86455741  0.05836705  1
  Al  Al29  1  0.78360579  0.76583944  0.82070482  1
  Al  Al30  1  0.87706127  0.88145765  0.57082126  1
  Al  Al31  1  0.56375937  0.87061275  0.06687241  1
  Al  Al32  1  0.10076340  0.76287187  0.82048542  1
  Al  Al33  1  0.78124412  0.75973345  0.31511016  1
  Al  Al34  1  0.88993813  0.87182123  0.06562906  1
  Al  Al35  1  0.56617037  0.87120496  0.56830865  1
  N  N36  1  0.20993072  0.22175880  0.36609913  1
  N  N37  1  0.11029374  0.09224971  0.09597853  1
  N  N38  1  0.86677731  0.21011856  0.88173078  1
  N  N39  1  0.77498764  0.09664867  0.63004994  1
  N  N40  1  0.56906499  0.21078836  0.38093143  1
  N  N41  1  0.44574023  0.09499668  0.10962082  1
  N  N42  1  0.21610211  0.22680505  0.87866582  1
  N  N43  1  0.08569423  0.10948630  0.62630765  1
  N  N44  1  0.87505328  0.20368282  0.37425205  1
  N  N45  1  0.77809787  0.09067293  0.12884561  1
  N  N46  1  0.56976980  0.20865463  0.87954093  1
  N  N47  1  0.46057523  0.08984047  0.61132074  1
  N  N48  1  0.24060067  0.51162592  0.31649171  1
  N  N49  1  0.10637004  0.42790594  0.11669616  1
  N  N50  1  0.88864826  0.54468580  0.87249722  1
  N  N51  1  0.76207765  0.42238038  0.56815418  1
  N  N52  1  0.56562405  0.51453784  0.31368531  1
  N  N53  1  0.44498041  0.42962918  0.07293771  1
  N  N54  1  0.23069193  0.53863410  0.83342064  1
  N  N55  1  0.11377096  0.43787369  0.63847914  1
  N  N56  1  0.89031279  0.53932069  0.36333016  1
  N  N57  1  0.77530974  0.43029867  0.07634854  1
  N  N58  1  0.56940123  0.51081511  0.82042438  1
  N  N59  1  0.43735280  0.43807988  0.57398928  1
  N  N60  1  0.22266696  0.87136857  0.38075944  1
  N  N61  1  0.10862049  0.76176038  0.11742751  1
  N  N62  1  0.88817672  0.87576735  0.87884919  1
  N  N63  1  0.76965122  0.78338636  0.63781952  1
  N  N64  1  0.57768409  0.86146377  0.38289371  1
  N  N65  1  0.44560839  0.75979217  0.10279264  1
  N  N66  1  0.21386272  0.85957924  0.87209476  1
  N  N67  1  0.09231788  0.75975248  0.62720867  1
  N  N68  1  0.86635165  0.88362411  0.38312971  1
  N  N69  1  0.78159852  0.76134687  0.12729022  1
  N  N70  1  0.58095917  0.86451901  0.88724843  1
  N  N71  1  0.46863837  0.75354899  0.62394232  1
