# generated using pymatgen
data_Sc5Al13N18
_symmetry_space_group_name_H-M   'P 1'
_cell_length_a   9.93603671
_cell_length_b   9.90609795
_cell_length_c   10.09945706
_cell_angle_alpha   89.73200216
_cell_angle_beta   89.90676752
_cell_angle_gamma   60.05317833
_symmetry_Int_Tables_number   1
_chemical_formula_structural   Sc5Al13N18
_chemical_formula_sum   'Sc10 Al26 N36'
_cell_volume   861.33489091
_cell_formula_units_Z   2
loop_
 _symmetry_equiv_pos_site_id
 _symmetry_equiv_pos_as_xyz
  1  'x, y, z'
loop_
 _atom_site_type_symbol
 _atom_site_label
 _atom_site_symmetry_multiplicity
 _atom_site_fract_x
 _atom_site_fract_y
 _atom_site_fract_z
 _atom_site_occupancy
  Sc  Sc0  1  0.09428446  0.10876249  0.37701983  1
  Sc  Sc1  1  0.45321370  0.09515120  0.36249106  1
  Sc  Sc2  1  0.09874374  0.10759877  0.86904849  1
  Sc  Sc3  1  0.22672287  0.21398555  0.62430279  1
  Sc  Sc4  1  0.44821001  0.10186014  0.88153288  1
  Sc  Sc5  1  0.88509798  0.54009083  0.61160284  1
  Sc  Sc6  1  0.10584335  0.75504747  0.35961368  1
  Sc  Sc7  1  0.44874555  0.75592011  0.32980561  1
  Sc  Sc8  1  0.22026724  0.86646946  0.60451270  1
  Sc  Sc9  1  0.46012153  0.75188056  0.84429647  1
  Al  Al10  1  0.21827639  0.21003089  0.13542046  1
  Al  Al11  1  0.77849134  0.09021430  0.82158561  1
  Al  Al12  1  0.87264048  0.21539866  0.63608331  1
  Al  Al13  1  0.55298879  0.21343250  0.13140841  1
  Al  Al14  1  0.77392932  0.09602213  0.31297281  1
  Al  Al15  1  0.88552272  0.20898765  0.12701379  1
  Al  Al16  1  0.55688861  0.21004747  0.63182960  1
  Al  Al17  1  0.11519898  0.43173306  0.37636776  1
  Al  Al18  1  0.22864162  0.52961182  0.12937744  1
  Al  Al19  1  0.77684412  0.42948459  0.88522426  1
  Al  Al20  1  0.44766664  0.42514487  0.38274249  1
  Al  Al21  1  0.56060674  0.52570744  0.12698880  1
  Al  Al22  1  0.10378720  0.43811922  0.88652078  1
  Al  Al23  1  0.22016236  0.54223967  0.63375562  1
  Al  Al24  1  0.76890312  0.42372392  0.37824483  1
  Al  Al25  1  0.89253092  0.53253190  0.13553558  1
  Al  Al26  1  0.44692262  0.42621749  0.88046167  1
  Al  Al27  1  0.55970802  0.52700988  0.63429001  1
  Al  Al28  1  0.22366700  0.86840865  0.06908160  1
  Al  Al29  1  0.78557707  0.76355971  0.82040201  1
  Al  Al30  1  0.87493756  0.88315969  0.56685393  1
  Al  Al31  1  0.56921723  0.86317525  0.07652353  1
  Al  Al32  1  0.10983805  0.75015857  0.88297036  1
  Al  Al33  1  0.78051518  0.76198084  0.31970400  1
  Al  Al34  1  0.88199144  0.87462036  0.06914736  1
  Al  Al35  1  0.56897477  0.86623701  0.57138762  1
  N  N36  1  0.21256311  0.22377540  0.32427383  1
  N  N37  1  0.11025539  0.09463403  0.09062037  1
  N  N38  1  0.86592942  0.22111624  0.82964731  1
  N  N39  1  0.77883659  0.09134403  0.62491894  1
  N  N40  1  0.56034151  0.22148749  0.32059368  1
  N  N41  1  0.44523430  0.09442030  0.10321198  1
  N  N42  1  0.21432711  0.23012647  0.83219925  1
  N  N43  1  0.08534998  0.11412027  0.59722680  1
  N  N44  1  0.86747816  0.21907326  0.31530120  1
  N  N45  1  0.77802334  0.09004816  0.11399990  1
  N  N46  1  0.55952441  0.21828511  0.82422020  1
  N  N47  1  0.46530598  0.08849756  0.58429227  1
  N  N48  1  0.23961959  0.51537150  0.31540603  1
  N  N49  1  0.10876010  0.42983561  0.07790490  1
  N  N50  1  0.88978545  0.53660714  0.83171479  1
  N  N51  1  0.76242019  0.41824305  0.56584728  1
  N  N52  1  0.56341714  0.51601752  0.31575072  1
  N  N53  1  0.44410656  0.42673421  0.06918195  1
  N  N54  1  0.22253647  0.53769314  0.82846113  1
  N  N55  1  0.11978562  0.44230756  0.56221160  1
  N  N56  1  0.89176145  0.53265044  0.33436015  1
  N  N57  1  0.77892996  0.42937620  0.07551007  1
  N  N58  1  0.56883869  0.51313249  0.82554067  1
  N  N59  1  0.44019431  0.43190366  0.57561865  1
  N  N60  1  0.22304197  0.87223488  0.38546344  1
  N  N61  1  0.11246219  0.75458496  0.09041826  1
  N  N62  1  0.88867185  0.87248660  0.87884226  1
  N  N63  1  0.77125346  0.78310494  0.63297707  1
  N  N64  1  0.58129471  0.85163506  0.38195110  1
  N  N65  1  0.44632283  0.75795049  0.10338477  1
  N  N66  1  0.21550618  0.86131902  0.86491141  1
  N  N67  1  0.09508359  0.75148072  0.58271357  1
  N  N68  1  0.86054223  0.89050459  0.37503833  1
  N  N69  1  0.78289547  0.75985884  0.13011684  1
  N  N70  1  0.58633237  0.86067129  0.89067711  1
  N  N71  1  0.46991300  0.75048387  0.62322902  1
