# generated using pymatgen
data_Sc5Al13N18
_symmetry_space_group_name_H-M   'P 1'
_cell_length_a   9.87424427
_cell_length_b   9.83896388
_cell_length_c   10.26370284
_cell_angle_alpha   89.29474149
_cell_angle_beta   89.98624212
_cell_angle_gamma   60.02788382
_symmetry_Int_Tables_number   1
_chemical_formula_structural   Sc5Al13N18
_chemical_formula_sum   'Sc10 Al26 N36'
_cell_volume   863.70788482
_cell_formula_units_Z   2
loop_
 _symmetry_equiv_pos_site_id
 _symmetry_equiv_pos_as_xyz
  1  'x, y, z'
loop_
 _atom_site_type_symbol
 _atom_site_label
 _atom_site_symmetry_multiplicity
 _atom_site_fract_x
 _atom_site_fract_y
 _atom_site_fract_z
 _atom_site_occupancy
  Sc  Sc0  1  0.10229617  0.09791082  0.30882295  1
  Sc  Sc1  1  0.44935247  0.10005993  0.32230892  1
  Sc  Sc2  1  0.09827060  0.10333428  0.83435499  1
  Sc  Sc3  1  0.21738373  0.21371655  0.57091030  1
  Sc  Sc4  1  0.45257821  0.09749848  0.82201062  1
  Sc  Sc5  1  0.88132024  0.54691603  0.57247015  1
  Sc  Sc6  1  0.10482501  0.75624171  0.33197796  1
  Sc  Sc7  1  0.45128772  0.75815581  0.32361417  1
  Sc  Sc8  1  0.22322924  0.86998072  0.58574155  1
  Sc  Sc9  1  0.45485853  0.75485578  0.84165278  1
  Al  Al10  1  0.22176233  0.21104785  0.06147223  1
  Al  Al11  1  0.77550927  0.09795368  0.81655532  1
  Al  Al12  1  0.87698631  0.20720338  0.56498672  1
  Al  Al13  1  0.56419179  0.19954005  0.06494486  1
  Al  Al14  1  0.77273782  0.09775181  0.31791717  1
  Al  Al15  1  0.88041727  0.20622877  0.06599529  1
  Al  Al16  1  0.56525537  0.20290210  0.56627253  1
  Al  Al17  1  0.10558021  0.42651658  0.30489072  1
  Al  Al18  1  0.23078337  0.53220116  0.12694389  1
  Al  Al19  1  0.77734947  0.42556750  0.84338112  1
  Al  Al20  1  0.44522276  0.42986441  0.38445370  1
  Al  Al21  1  0.55850593  0.52769381  0.12747095  1
  Al  Al22  1  0.10641070  0.43618421  0.82409688  1
  Al  Al23  1  0.22950666  0.53738078  0.64143565  1
  Al  Al24  1  0.78028538  0.42319279  0.32652111  1
  Al  Al25  1  0.88838706  0.54107555  0.06671625  1
  Al  Al26  1  0.44314203  0.43109774  0.88777610  1
  Al  Al27  1  0.55831648  0.52846395  0.63692711  1
  Al  Al28  1  0.21938029  0.86496109  0.05918568  1
  Al  Al29  1  0.78341956  0.76527663  0.82086174  1
  Al  Al30  1  0.87698997  0.88117246  0.57131712  1
  Al  Al31  1  0.56439820  0.87076376  0.06758378  1
  Al  Al32  1  0.10015385  0.76234284  0.82058878  1
  Al  Al33  1  0.78117550  0.76099741  0.31400752  1
  Al  Al34  1  0.89008027  0.87205151  0.06623492  1
  Al  Al35  1  0.56689475  0.87067799  0.56902346  1
  N  N36  1  0.20967477  0.22134375  0.36587890  1
  N  N37  1  0.11040457  0.09207932  0.09569926  1
  N  N38  1  0.86498275  0.21370328  0.88322748  1
  N  N39  1  0.77612374  0.09617140  0.62931505  1
  N  N40  1  0.56927473  0.21099565  0.38043115  1
  N  N41  1  0.44601144  0.09495887  0.10937501  1
  N  N42  1  0.21602278  0.22619205  0.87718919  1
  N  N43  1  0.08620411  0.10840393  0.62583171  1
  N  N44  1  0.87234271  0.20953023  0.37559031  1
  N  N45  1  0.77879686  0.09112446  0.12870106  1
  N  N46  1  0.56982812  0.20925209  0.87905254  1
  N  N47  1  0.46099905  0.08961135  0.61059699  1
  N  N48  1  0.24060754  0.51135232  0.31788532  1
  N  N49  1  0.10708055  0.42773110  0.11537637  1
  N  N50  1  0.88676374  0.54274884  0.87433197  1
  N  N51  1  0.77086588  0.41793628  0.60918580  1
  N  N52  1  0.56246832  0.51663700  0.31589464  1
  N  N53  1  0.44422599  0.42870054  0.07453956  1
  N  N54  1  0.22889226  0.53863836  0.83466713  1
  N  N55  1  0.11180367  0.43893154  0.63725078  1
  N  N56  1  0.89033561  0.53865996  0.35949231  1
  N  N57  1  0.78235147  0.42533257  0.11003392  1
  N  N58  1  0.56293585  0.51536099  0.82657975  1
  N  N59  1  0.43775386  0.43728740  0.57553971  1
  N  N60  1  0.22229100  0.87135429  0.38104853  1
  N  N61  1  0.10868525  0.76152685  0.11770915  1
  N  N62  1  0.88815113  0.87586575  0.87836672  1
  N  N63  1  0.77051095  0.78173451  0.63707569  1
  N  N64  1  0.57884423  0.86126848  0.38209198  1
  N  N65  1  0.44544015  0.76014032  0.10185275  1
  N  N66  1  0.21278873  0.85975658  0.87115903  1
  N  N67  1  0.09245347  0.75871533  0.62590762  1
  N  N68  1  0.86656872  0.88422115  0.38242223  1
  N  N69  1  0.78201786  0.76103754  0.12605772  1
  N  N70  1  0.58145651  0.86495836  0.88670534  1
  N  N71  1  0.46853600  0.75355005  0.62303970  1
