# generated using pymatgen
data_Sc5Al13N18
_symmetry_space_group_name_H-M   'P 1'
_cell_length_a   9.90258678
_cell_length_b   9.89944968
_cell_length_c   10.07486522
_cell_angle_alpha   89.73654143
_cell_angle_beta   89.80253909
_cell_angle_gamma   60.13512107
_symmetry_Int_Tables_number   1
_chemical_formula_structural   Sc5Al13N18
_chemical_formula_sum   'Sc10 Al26 N36'
_cell_volume   856.47427268
_cell_formula_units_Z   2
loop_
 _symmetry_equiv_pos_site_id
 _symmetry_equiv_pos_as_xyz
  1  'x, y, z'
loop_
 _atom_site_type_symbol
 _atom_site_label
 _atom_site_symmetry_multiplicity
 _atom_site_fract_x
 _atom_site_fract_y
 _atom_site_fract_z
 _atom_site_occupancy
  Sc  Sc0  1  0.09565790  0.10400983  0.36815150  1
  Sc  Sc1  1  0.45127606  0.09618025  0.35835422  1
  Sc  Sc2  1  0.10110985  0.09945064  0.88161304  1
  Sc  Sc3  1  0.22188645  0.21225595  0.62194867  1
  Sc  Sc4  1  0.44731855  0.10333194  0.87785111  1
  Sc  Sc5  1  0.88336153  0.54233862  0.61300015  1
  Sc  Sc6  1  0.10646922  0.75085311  0.35635218  1
  Sc  Sc7  1  0.45698787  0.74518838  0.36970367  1
  Sc  Sc8  1  0.21615395  0.86779208  0.62393383  1
  Sc  Sc9  1  0.45226394  0.75134993  0.86696326  1
  Al  Al10  1  0.21776128  0.21247978  0.13522108  1
  Al  Al11  1  0.77462067  0.10092170  0.88227460  1
  Al  Al12  1  0.87328540  0.21044902  0.63342388  1
  Al  Al13  1  0.55973420  0.21212596  0.13347372  1
  Al  Al14  1  0.76752966  0.10776124  0.38023478  1
  Al  Al15  1  0.87860469  0.21022623  0.13155783  1
  Al  Al16  1  0.56051957  0.20880915  0.63069089  1
  Al  Al17  1  0.11350269  0.43188365  0.37655752  1
  Al  Al18  1  0.23097406  0.52749748  0.12724039  1
  Al  Al19  1  0.77817799  0.42777135  0.88209141  1
  Al  Al20  1  0.44765955  0.42333399  0.38155075  1
  Al  Al21  1  0.55921253  0.53009359  0.12938248  1
  Al  Al22  1  0.10382654  0.43726689  0.88457464  1
  Al  Al23  1  0.22123314  0.54181955  0.63311863  1
  Al  Al24  1  0.77212900  0.42230966  0.37828552  1
  Al  Al25  1  0.89196343  0.53172542  0.13187856  1
  Al  Al26  1  0.44850228  0.42545716  0.87842583  1
  Al  Al27  1  0.55966870  0.52738156  0.63300680  1
  Al  Al28  1  0.22613539  0.86933919  0.13389294  1
  Al  Al29  1  0.78532052  0.76604807  0.82350942  1
  Al  Al30  1  0.87898407  0.87918020  0.56576686  1
  Al  Al31  1  0.56658072  0.86476793  0.07707657  1
  Al  Al32  1  0.11311571  0.75280173  0.88966033  1
  Al  Al33  1  0.78064250  0.76230918  0.31501856  1
  Al  Al34  1  0.88496414  0.87274769  0.07535905  1
  Al  Al35  1  0.56955423  0.87110084  0.57207442  1
  N  N36  1  0.21040936  0.22501264  0.32454952  1
  N  N37  1  0.10762546  0.09618524  0.09785461  1
  N  N38  1  0.86853579  0.21675492  0.82371754  1
  N  N39  1  0.77278677  0.10224084  0.57322815  1
  N  N40  1  0.56413106  0.21905214  0.32004062  1
  N  N41  1  0.44585304  0.09590441  0.10311773  1
  N  N42  1  0.21052627  0.22697796  0.83167918  1
  N  N43  1  0.08586506  0.10739560  0.58305436  1
  N  N44  1  0.86377863  0.21725134  0.31641212  1
  N  N45  1  0.77337595  0.10067414  0.07483859  1
  N  N46  1  0.56653036  0.21568446  0.81988369  1
  N  N47  1  0.46217909  0.09120931  0.58566870  1
  N  N48  1  0.24072508  0.51165468  0.31370848  1
  N  N49  1  0.10910817  0.42986034  0.07607083  1
  N  N50  1  0.88890726  0.53796651  0.83197175  1
  N  N51  1  0.76484907  0.41763107  0.56678454  1
  N  N52  1  0.56544964  0.51401532  0.31648694  1
  N  N53  1  0.44658194  0.42565374  0.06829350  1
  N  N54  1  0.22313928  0.53822100  0.82852833  1
  N  N55  1  0.11831598  0.44288003  0.56326779  1
  N  N56  1  0.89097541  0.53321551  0.33196373  1
  N  N57  1  0.77875331  0.42798704  0.07387142  1
  N  N58  1  0.56828208  0.51620380  0.82241898  1
  N  N59  1  0.44028069  0.43149272  0.57470881  1
  N  N60  1  0.22400353  0.86995509  0.32432762  1
  N  N61  1  0.11593650  0.75452550  0.09066085  1
  N  N62  1  0.89144251  0.87102018  0.88054644  1
  N  N63  1  0.77131271  0.78612327  0.63477500  1
  N  N64  1  0.58280644  0.85585896  0.38011800  1
  N  N65  1  0.44858076  0.75562159  0.09534853  1
  N  N66  1  0.21161754  0.86210674  0.83446678  1
  N  N67  1  0.09910829  0.75089298  0.57340108  1
  N  N68  1  0.86422957  0.88797284  0.36374685  1
  N  N69  1  0.78176221  0.75899470  0.12593884  1
  N  N70  1  0.58149810  0.86304864  0.88721066  1
  N  N71  1  0.46637356  0.74923567  0.59807275  1
