# generated using pymatgen
data_Sc5Al13N18
_symmetry_space_group_name_H-M   'P 1'
_cell_length_a   9.95619888
_cell_length_b   9.93452046
_cell_length_c   9.99646981
_cell_angle_alpha   89.70618109
_cell_angle_beta   89.87563878
_cell_angle_gamma   60.10829360
_symmetry_Int_Tables_number   1
_chemical_formula_structural   Sc5Al13N18
_chemical_formula_sum   'Sc10 Al26 N36'
_cell_volume   857.20539197
_cell_formula_units_Z   2
loop_
 _symmetry_equiv_pos_site_id
 _symmetry_equiv_pos_as_xyz
  1  'x, y, z'
loop_
 _atom_site_type_symbol
 _atom_site_label
 _atom_site_symmetry_multiplicity
 _atom_site_fract_x
 _atom_site_fract_y
 _atom_site_fract_z
 _atom_site_occupancy
  Sc  Sc0  1  0.09425100  0.10769845  0.37213420  1
  Sc  Sc1  1  0.45237845  0.09604102  0.36113163  1
  Sc  Sc2  1  0.10059443  0.10409485  0.87204996  1
  Sc  Sc3  1  0.22458564  0.21382154  0.62210509  1
  Sc  Sc4  1  0.44804727  0.10074209  0.87740966  1
  Sc  Sc5  1  0.88460487  0.54104054  0.60985824  1
  Sc  Sc6  1  0.10514460  0.75329819  0.35765701  1
  Sc  Sc7  1  0.45381044  0.75050650  0.34594485  1
  Sc  Sc8  1  0.21757411  0.86739861  0.60844575  1
  Sc  Sc9  1  0.45760298  0.75206520  0.84713116  1
  Al  Al10  1  0.21858769  0.21158749  0.13492395  1
  Al  Al11  1  0.77912478  0.09031778  0.82420786  1
  Al  Al12  1  0.87388943  0.21409387  0.63572797  1
  Al  Al13  1  0.55302272  0.21373267  0.12916884  1
  Al  Al14  1  0.77347472  0.09625841  0.31328883  1
  Al  Al15  1  0.88298404  0.21076854  0.12555512  1
  Al  Al16  1  0.55760926  0.20984428  0.63217971  1
  Al  Al17  1  0.11496360  0.43217906  0.37628764  1
  Al  Al18  1  0.22954577  0.52898213  0.12813912  1
  Al  Al19  1  0.77716168  0.42983315  0.88417896  1
  Al  Al20  1  0.44784455  0.42370858  0.38233276  1
  Al  Al21  1  0.55970660  0.52786198  0.12827209  1
  Al  Al22  1  0.10364214  0.43801878  0.88528374  1
  Al  Al23  1  0.22041369  0.54232168  0.63382243  1
  Al  Al24  1  0.77010286  0.42193077  0.37835591  1
  Al  Al25  1  0.89190580  0.53341424  0.13456407  1
  Al  Al26  1  0.44702760  0.42668491  0.87988919  1
  Al  Al27  1  0.56003372  0.52628138  0.63290778  1
  Al  Al28  1  0.22417025  0.86944279  0.09330930  1
  Al  Al29  1  0.78602042  0.76313312  0.82156007  1
  Al  Al30  1  0.87560577  0.88328478  0.56691081  1
  Al  Al31  1  0.56793527  0.86372844  0.07794745  1
  Al  Al32  1  0.11136238  0.75193299  0.88364279  1
  Al  Al33  1  0.78076997  0.76272821  0.31968974  1
  Al  Al34  1  0.88180449  0.87501945  0.06964354  1
  Al  Al35  1  0.56968723  0.86786271  0.57225390  1
  N  N36  1  0.21208047  0.22481273  0.32586760  1
  N  N37  1  0.10999625  0.09481810  0.09443699  1
  N  N38  1  0.86749572  0.22038837  0.83168078  1
  N  N39  1  0.77904979  0.09128563  0.62485790  1
  N  N40  1  0.56065481  0.22072811  0.32074607  1
  N  N41  1  0.44465633  0.09506839  0.10268717  1
  N  N42  1  0.21283468  0.22957395  0.83259985  1
  N  N43  1  0.08512873  0.11257326  0.59294761  1
  N  N44  1  0.86636247  0.21905130  0.31536219  1
  N  N45  1  0.77745494  0.09075841  0.11175687  1
  N  N46  1  0.56043197  0.21824646  0.82657911  1
  N  N47  1  0.46454227  0.08869616  0.58790778  1
  N  N48  1  0.24031394  0.51406917  0.31557201  1
  N  N49  1  0.10839307  0.43044567  0.07835181  1
  N  N50  1  0.88962210  0.53721047  0.83212778  1
  N  N51  1  0.76363621  0.41717671  0.56744801  1
  N  N52  1  0.56473359  0.51375208  0.31765392  1
  N  N53  1  0.44449006  0.42767931  0.06991028  1
  N  N54  1  0.22245838  0.53832073  0.82989678  1
  N  N55  1  0.11948407  0.44277614  0.56387532  1
  N  N56  1  0.89109718  0.53375381  0.33577115  1
  N  N57  1  0.77814842  0.43058330  0.07614952  1
  N  N58  1  0.56861937  0.51438364  0.82517097  1
  N  N59  1  0.44043409  0.43088749  0.57655602  1
  N  N60  1  0.22120642  0.87203987  0.36831550  1
  N  N61  1  0.11317380  0.75554677  0.09140689  1
  N  N62  1  0.88976203  0.87185160  0.87843067  1
  N  N63  1  0.77185833  0.78316591  0.63226558  1
  N  N64  1  0.58171439  0.85509005  0.38038346  1
  N  N65  1  0.44705153  0.75764035  0.10480067  1
  N  N66  1  0.21441505  0.86178869  0.85008755  1
  N  N67  1  0.09582791  0.75095536  0.58033076  1
  N  N68  1  0.86093089  0.89083205  0.37337079  1
  N  N69  1  0.78294526  0.75985593  0.12864961  1
  N  N70  1  0.58523455  0.86022467  0.88912121  1
  N  N71  1  0.46909419  0.74915063  0.61289707  1
