# generated using pymatgen
data_Sc5Al13N18
_symmetry_space_group_name_H-M   'P 1'
_cell_length_a   9.89445032
_cell_length_b   9.89037400
_cell_length_c   10.10453025
_cell_angle_alpha   89.67003487
_cell_angle_beta   89.84764799
_cell_angle_gamma   60.16689572
_symmetry_Int_Tables_number   1
_chemical_formula_structural   Sc5Al13N18
_chemical_formula_sum   'Sc10 Al26 N36'
_cell_volume   857.77197743
_cell_formula_units_Z   2
loop_
 _symmetry_equiv_pos_site_id
 _symmetry_equiv_pos_as_xyz
  1  'x, y, z'
loop_
 _atom_site_type_symbol
 _atom_site_label
 _atom_site_symmetry_multiplicity
 _atom_site_fract_x
 _atom_site_fract_y
 _atom_site_fract_z
 _atom_site_occupancy
  Sc  Sc0  1  0.09580260  0.10425339  0.36850485  1
  Sc  Sc1  1  0.45129193  0.09594939  0.35867845  1
  Sc  Sc2  1  0.10155569  0.10001727  0.88258710  1
  Sc  Sc3  1  0.22318619  0.21168539  0.62308742  1
  Sc  Sc4  1  0.44762897  0.10283715  0.87975026  1
  Sc  Sc5  1  0.88475869  0.54100554  0.61316220  1
  Sc  Sc6  1  0.10510262  0.75125558  0.35741761  1
  Sc  Sc7  1  0.45470457  0.74494031  0.37091537  1
  Sc  Sc8  1  0.21506138  0.86849212  0.62535497  1
  Sc  Sc9  1  0.45246379  0.75131123  0.86798837  1
  Al  Al10  1  0.21771339  0.21286436  0.13534149  1
  Al  Al11  1  0.77500859  0.10089350  0.87858154  1
  Al  Al12  1  0.87391564  0.21108420  0.63396865  1
  Al  Al13  1  0.56009531  0.21169762  0.13249991  1
  Al  Al14  1  0.76763342  0.10738138  0.37975954  1
  Al  Al15  1  0.87871474  0.21014973  0.13076468  1
  Al  Al16  1  0.56052868  0.20846110  0.63135536  1
  Al  Al17  1  0.11413598  0.43151690  0.37683199  1
  Al  Al18  1  0.23065941  0.52836627  0.12758144  1
  Al  Al19  1  0.77831443  0.42872820  0.88283886  1
  Al  Al20  1  0.44809575  0.42271292  0.38146112  1
  Al  Al21  1  0.55909538  0.53057403  0.13003644  1
  Al  Al22  1  0.10420438  0.43756043  0.88502831  1
  Al  Al23  1  0.22212236  0.54131063  0.63286001  1
  Al  Al24  1  0.77216382  0.42228973  0.37839401  1
  Al  Al25  1  0.89227310  0.53247853  0.13308590  1
  Al  Al26  1  0.44845254  0.42583636  0.87896548  1
  Al  Al27  1  0.55972796  0.52720277  0.63330413  1
  Al  Al28  1  0.22521822  0.86967335  0.13339097  1
  Al  Al29  1  0.78501888  0.76562706  0.82149678  1
  Al  Al30  1  0.87810024  0.87910394  0.56538771  1
  Al  Al31  1  0.56701655  0.86433260  0.07803691  1
  Al  Al32  1  0.11384062  0.75228152  0.88857413  1
  Al  Al33  1  0.77995226  0.76246819  0.31633899  1
  Al  Al34  1  0.88444897  0.87259801  0.07047615  1
  Al  Al35  1  0.56907074  0.87017148  0.57109634  1
  N  N36  1  0.21064057  0.22515696  0.32375850  1
  N  N37  1  0.10757382  0.09679862  0.09748804  1
  N  N38  1  0.86923467  0.21789535  0.82387031  1
  N  N39  1  0.77334999  0.10210090  0.57636508  1
  N  N40  1  0.56436594  0.21869616  0.31881121  1
  N  N41  1  0.44569953  0.09574518  0.10297288  1
  N  N42  1  0.21125093  0.22721799  0.83214761  1
  N  N43  1  0.08624551  0.10812850  0.58273296  1
  N  N44  1  0.86390868  0.21706962  0.31560961  1
  N  N45  1  0.77388344  0.09989928  0.07310739  1
  N  N46  1  0.56538067  0.21619454  0.82012354  1
  N  N47  1  0.46293978  0.09039661  0.58450157  1
  N  N48  1  0.24066947  0.51234826  0.31369295  1
  N  N49  1  0.10903406  0.43051096  0.07608908  1
  N  N50  1  0.88959861  0.53788945  0.83159217  1
  N  N51  1  0.76476029  0.41797242  0.56643905  1
  N  N52  1  0.56544553  0.51404303  0.31655108  1
  N  N53  1  0.44639674  0.42617021  0.06833341  1
  N  N54  1  0.22370202  0.53810976  0.82794490  1
  N  N55  1  0.11964445  0.44185900  0.56291640  1
  N  N56  1  0.89133628  0.53310366  0.33233283  1
  N  N57  1  0.77861287  0.42906265  0.07416493  1
  N  N58  1  0.56852522  0.51635550  0.82228639  1
  N  N59  1  0.44095008  0.43070703  0.57431771  1
  N  N60  1  0.22207478  0.87050578  0.32289404  1
  N  N61  1  0.11496122  0.75496453  0.08903834  1
  N  N62  1  0.89168193  0.87054233  0.87779905  1
  N  N63  1  0.77081079  0.78484586  0.63388169  1
  N  N64  1  0.58117675  0.85504498  0.37944677  1
  N  N65  1  0.44803407  0.75584492  0.09510997  1
  N  N66  1  0.21162955  0.86283746  0.83497353  1
  N  N67  1  0.09950178  0.75046379  0.57359550  1
  N  N68  1  0.86232846  0.88743645  0.37008150  1
  N  N69  1  0.78228872  0.76024778  0.12763489  1
  N  N70  1  0.58274920  0.86221382  0.88839707  1
  N  N71  1  0.46485855  0.74934894  0.59789284  1
