# generated using pymatgen
data_Sc5Al13N18
_symmetry_space_group_name_H-M   'P 1'
_cell_length_a   9.95201341
_cell_length_b   9.92147427
_cell_length_c   10.01731542
_cell_angle_alpha   89.63798308
_cell_angle_beta   89.88148061
_cell_angle_gamma   60.05486998
_symmetry_Int_Tables_number   1
_chemical_formula_structural   Sc5Al13N18
_chemical_formula_sum   'Sc10 Al26 N36'
_cell_volume   857.03783099
_cell_formula_units_Z   2
loop_
 _symmetry_equiv_pos_site_id
 _symmetry_equiv_pos_as_xyz
  1  'x, y, z'
loop_
 _atom_site_type_symbol
 _atom_site_label
 _atom_site_symmetry_multiplicity
 _atom_site_fract_x
 _atom_site_fract_y
 _atom_site_fract_z
 _atom_site_occupancy
  Sc  Sc0  1  0.10027975  0.09677248  0.33496636  1
  Sc  Sc1  1  0.45635177  0.09656291  0.33792926  1
  Sc  Sc2  1  0.10073345  0.10542649  0.85627989  1
  Sc  Sc3  1  0.21945102  0.21590047  0.60717446  1
  Sc  Sc4  1  0.45513242  0.09237479  0.83086761  1
  Sc  Sc5  1  0.88206464  0.54141241  0.61278166  1
  Sc  Sc6  1  0.10501182  0.75700306  0.33914806  1
  Sc  Sc7  1  0.45041409  0.75740591  0.33082975  1
  Sc  Sc8  1  0.22472867  0.86764511  0.59956251  1
  Sc  Sc9  1  0.45953671  0.74878322  0.84885314  1
  Al  Al10  1  0.22146676  0.21188158  0.12927584  1
  Al  Al11  1  0.77613724  0.09478048  0.83020640  1
  Al  Al12  1  0.87230612  0.20986223  0.60927144  1
  Al  Al13  1  0.55983481  0.20257302  0.06783705  1
  Al  Al14  1  0.77041376  0.09846765  0.31296665  1
  Al  Al15  1  0.87988721  0.20843131  0.10072781  1
  Al  Al16  1  0.56496493  0.20607545  0.57270732  1
  Al  Al17  1  0.11211601  0.43511978  0.37550445  1
  Al  Al18  1  0.22851849  0.53183049  0.12877646  1
  Al  Al19  1  0.77635752  0.43045267  0.89117688  1
  Al  Al20  1  0.44542612  0.43088310  0.38466436  1
  Al  Al21  1  0.55801602  0.52881654  0.12935366  1
  Al  Al22  1  0.10635311  0.43566140  0.88593971  1
  Al  Al23  1  0.22378726  0.53659840  0.63725731  1
  Al  Al24  1  0.77036653  0.42350981  0.37357643  1
  Al  Al25  1  0.88997306  0.53650196  0.13643394  1
  Al  Al26  1  0.44383355  0.42970550  0.88279049  1
  Al  Al27  1  0.55962121  0.52722301  0.63557214  1
  Al  Al28  1  0.22011651  0.86411598  0.06475989  1
  Al  Al29  1  0.78573768  0.76147235  0.82457189  1
  Al  Al30  1  0.87702778  0.88291887  0.57509599  1
  Al  Al31  1  0.56620325  0.86927640  0.07458920  1
  Al  Al32  1  0.10022365  0.75906919  0.82378746  1
  Al  Al33  1  0.78090065  0.76515601  0.32270154  1
  Al  Al34  1  0.88945276  0.86976156  0.06986782  1
  Al  Al35  1  0.56912793  0.86787436  0.57252459  1
  N  N36  1  0.21251726  0.22432759  0.33139518  1
  N  N37  1  0.11529992  0.09129434  0.09979557  1
  N  N38  1  0.86673592  0.21341004  0.88000263  1
  N  N39  1  0.77378071  0.09605726  0.63641477  1
  N  N40  1  0.57187008  0.21432020  0.38236692  1
  N  N41  1  0.44668813  0.09488084  0.11269748  1
  N  N42  1  0.21488799  0.23079169  0.82531773  1
  N  N43  1  0.08275700  0.11044817  0.61471416  1
  N  N44  1  0.86696694  0.21809049  0.31679349  1
  N  N45  1  0.77291176  0.08715324  0.12138073  1
  N  N46  1  0.56673430  0.21035020  0.87767155  1
  N  N47  1  0.46481371  0.08726929  0.60617417  1
  N  N48  1  0.24067009  0.51345020  0.31833438  1
  N  N49  1  0.10837287  0.43078441  0.07945388  1
  N  N50  1  0.89008001  0.53502991  0.83390901  1
  N  N51  1  0.76153353  0.41739560  0.56496875  1
  N  N52  1  0.56190117  0.51857208  0.31864211  1
  N  N53  1  0.44235743  0.43121917  0.07505766  1
  N  N54  1  0.22428859  0.53446931  0.83169277  1
  N  N55  1  0.11505566  0.44936448  0.56214035  1
  N  N56  1  0.88984539  0.53601727  0.33635435  1
  N  N57  1  0.77408915  0.43785618  0.08225898  1
  N  N58  1  0.57130833  0.50950303  0.82586518  1
  N  N59  1  0.43665463  0.43795384  0.58060483  1
  N  N60  1  0.22441928  0.86631947  0.38945604  1
  N  N61  1  0.10829325  0.76163717  0.11905259  1
  N  N62  1  0.88935292  0.87159584  0.87970612  1
  N  N63  1  0.77133573  0.78316790  0.63487430  1
  N  N64  1  0.57961022  0.85848401  0.38318169  1
  N  N65  1  0.44445562  0.76004825  0.10330832  1
  N  N66  1  0.21446113  0.85788523  0.86801423  1
  N  N67  1  0.09149771  0.75864885  0.62604021  1
  N  N68  1  0.86545210  0.88948493  0.38361335  1
  N  N69  1  0.78185458  0.76290715  0.13109173  1
  N  N70  1  0.58489996  0.85928378  0.88965081  1
  N  N71  1  0.47265780  0.74997869  0.62366677  1
