# generated using pymatgen
data_Sc5Al13N18
_symmetry_space_group_name_H-M   'P 1'
_cell_length_a   9.90397467
_cell_length_b   9.89851352
_cell_length_c   10.09316120
_cell_angle_alpha   89.64335877
_cell_angle_beta   89.85288455
_cell_angle_gamma   60.15582723
_symmetry_Int_Tables_number   1
_chemical_formula_structural   Sc5Al13N18
_chemical_formula_sum   'Sc10 Al26 N36'
_cell_volume   858.23979035
_cell_formula_units_Z   2
loop_
 _symmetry_equiv_pos_site_id
 _symmetry_equiv_pos_as_xyz
  1  'x, y, z'
loop_
 _atom_site_type_symbol
 _atom_site_label
 _atom_site_symmetry_multiplicity
 _atom_site_fract_x
 _atom_site_fract_y
 _atom_site_fract_z
 _atom_site_occupancy
  Sc  Sc0  1  0.09653748  0.10415228  0.36884746  1
  Sc  Sc1  1  0.45090351  0.09602255  0.35960949  1
  Sc  Sc2  1  0.10238089  0.09984085  0.88306648  1
  Sc  Sc3  1  0.22344016  0.21179492  0.62336133  1
  Sc  Sc4  1  0.44700315  0.10247136  0.88023819  1
  Sc  Sc5  1  0.88510685  0.54080476  0.61318396  1
  Sc  Sc6  1  0.10520864  0.75097014  0.35812578  1
  Sc  Sc7  1  0.45447149  0.74512627  0.37076443  1
  Sc  Sc8  1  0.21466473  0.86848029  0.62526585  1
  Sc  Sc9  1  0.45229094  0.75134911  0.86796176  1
  Al  Al10  1  0.21775614  0.21299911  0.13546922  1
  Al  Al11  1  0.77746063  0.09630688  0.85524220  1
  Al  Al12  1  0.87545793  0.21149866  0.63449134  1
  Al  Al13  1  0.55790495  0.21248505  0.13018697  1
  Al  Al14  1  0.77047842  0.10216739  0.35077666  1
  Al  Al15  1  0.87989189  0.21083282  0.12851773  1
  Al  Al16  1  0.55986272  0.20847564  0.63208210  1
  Al  Al17  1  0.11426611  0.43160229  0.37704095  1
  Al  Al18  1  0.23014239  0.52907540  0.12776423  1
  Al  Al19  1  0.77811597  0.42949546  0.88360851  1
  Al  Al20  1  0.44801978  0.42311068  0.38209791  1
  Al  Al21  1  0.55898968  0.53078580  0.13036880  1
  Al  Al22  1  0.10417981  0.43771025  0.88516788  1
  Al  Al23  1  0.22194875  0.54150439  0.63302983  1
  Al  Al24  1  0.77183281  0.42266922  0.37903333  1
  Al  Al25  1  0.89225263  0.53306523  0.13321556  1
  Al  Al26  1  0.44777212  0.42668719  0.87970560  1
  Al  Al27  1  0.55979887  0.52704425  0.63354479  1
  Al  Al28  1  0.22498563  0.86959731  0.13333057  1
  Al  Al29  1  0.78485197  0.76494013  0.82123335  1
  Al  Al30  1  0.87679972  0.88170221  0.56654508  1
  Al  Al31  1  0.56722668  0.86414067  0.07830842  1
  Al  Al32  1  0.11391532  0.75220361  0.88888739  1
  Al  Al33  1  0.77970434  0.76214779  0.31669577  1
  Al  Al34  1  0.88302116  0.87486683  0.06922666  1
  Al  Al35  1  0.56930504  0.86977026  0.57132129  1
  N  N36  1  0.21073451  0.22535467  0.32405533  1
  N  N37  1  0.10836114  0.09675124  0.09769439  1
  N  N38  1  0.87077174  0.21965316  0.82616962  1
  N  N39  1  0.77682551  0.09633183  0.60074391  1
  N  N40  1  0.56172048  0.22011697  0.31839401  1
  N  N41  1  0.44504011  0.09566304  0.10285898  1
  N  N42  1  0.21105535  0.22760375  0.83238333  1
  N  N43  1  0.08705135  0.10821541  0.58266690  1
  N  N44  1  0.86545497  0.21853947  0.31519001  1
  N  N45  1  0.77532967  0.09699703  0.08560963  1
  N  N46  1  0.56175689  0.21807546  0.82250088  1
  N  N47  1  0.46301428  0.09007050  0.58454290  1
  N  N48  1  0.24054163  0.51272418  0.31409794  1
  N  N49  1  0.10900538  0.43067319  0.07646450  1
  N  N50  1  0.88967307  0.53808432  0.83197097  1
  N  N51  1  0.76481723  0.41776478  0.56679951  1
  N  N52  1  0.56546052  0.51404508  0.31708683  1
  N  N53  1  0.44569018  0.42735899  0.06885172  1
  N  N54  1  0.22325457  0.53858785  0.82819489  1
  N  N55  1  0.11990789  0.44175983  0.56319637  1
  N  N56  1  0.89137134  0.53342845  0.33290276  1
  N  N57  1  0.77822160  0.43015063  0.07473679  1
  N  N58  1  0.56845967  0.51646312  0.82264868  1
  N  N59  1  0.44112799  0.43049171  0.57471767  1
  N  N60  1  0.22159045  0.87042583  0.32313622  1
  N  N61  1  0.11452456  0.75527477  0.08886941  1
  N  N62  1  0.89134005  0.87045605  0.87752322  1
  N  N63  1  0.77113878  0.78392492  0.63332381  1
  N  N64  1  0.58095382  0.85512245  0.37925682  1
  N  N65  1  0.44791263  0.75599623  0.09550383  1
  N  N66  1  0.21137835  0.86280454  0.83503268  1
  N  N67  1  0.09932624  0.75033282  0.57336437  1
  N  N68  1  0.86146635  0.88805073  0.37180818  1
  N  N69  1  0.78255870  0.76059817  0.12788798  1
  N  N70  1  0.58292072  0.86175350  0.88841259  1
  N  N71  1  0.46461568  0.74929868  0.59788367  1
