# generated using pymatgen
data_Sc5Al13N18
_symmetry_space_group_name_H-M   'P 1'
_cell_length_a   9.93100465
_cell_length_b   9.91688062
_cell_length_c   10.06400945
_cell_angle_alpha   89.51470012
_cell_angle_beta   89.55335083
_cell_angle_gamma   60.13340774
_symmetry_Int_Tables_number   1
_chemical_formula_structural   Sc5Al13N18
_chemical_formula_sum   'Sc10 Al26 N36'
_cell_volume   859.47434766
_cell_formula_units_Z   2
loop_
 _symmetry_equiv_pos_site_id
 _symmetry_equiv_pos_as_xyz
  1  'x, y, z'
loop_
 _atom_site_type_symbol
 _atom_site_label
 _atom_site_symmetry_multiplicity
 _atom_site_fract_x
 _atom_site_fract_y
 _atom_site_fract_z
 _atom_site_occupancy
  Sc  Sc0  1  0.09399137  0.10522464  0.37011143  1
  Sc  Sc1  1  0.45503059  0.09582610  0.33565937  1
  Sc  Sc2  1  0.10127017  0.10617841  0.87185629  1
  Sc  Sc3  1  0.22054844  0.21594936  0.61362337  1
  Sc  Sc4  1  0.45628961  0.09271455  0.83293157  1
  Sc  Sc5  1  0.88230675  0.54166373  0.61236541  1
  Sc  Sc6  1  0.10570507  0.75336055  0.35957062  1
  Sc  Sc7  1  0.45383848  0.75398706  0.33728664  1
  Sc  Sc8  1  0.21998508  0.86663488  0.60499652  1
  Sc  Sc9  1  0.45967508  0.75031528  0.84611346  1
  Al  Al10  1  0.21849586  0.21173578  0.13344269  1
  Al  Al11  1  0.77740335  0.09096529  0.82256610  1
  Al  Al12  1  0.87303917  0.21443618  0.63669079  1
  Al  Al13  1  0.56070158  0.20344333  0.06688636  1
  Al  Al14  1  0.76807473  0.09941863  0.31435980  1
  Al  Al15  1  0.88237889  0.21122198  0.12825743  1
  Al  Al16  1  0.56607853  0.20471665  0.57109664  1
  Al  Al17  1  0.11241335  0.43369772  0.37636976  1
  Al  Al18  1  0.22976864  0.52844605  0.12990439  1
  Al  Al19  1  0.77758225  0.42829631  0.88521028  1
  Al  Al20  1  0.44416793  0.43047319  0.38500979  1
  Al  Al21  1  0.55893964  0.52724091  0.12888123  1
  Al  Al22  1  0.10532430  0.43567474  0.88553947  1
  Al  Al23  1  0.21889098  0.54352623  0.63603004  1
  Al  Al24  1  0.76907170  0.42226346  0.37938470  1
  Al  Al25  1  0.89030456  0.53423039  0.13487201  1
  Al  Al26  1  0.44503186  0.42930365  0.88142815  1
  Al  Al27  1  0.55873494  0.52697678  0.63492505  1
  Al  Al28  1  0.22448480  0.86856582  0.08017278  1
  Al  Al29  1  0.78783411  0.76201376  0.82266755  1
  Al  Al30  1  0.87599573  0.88288449  0.56847684  1
  Al  Al31  1  0.56558260  0.86880146  0.07340000  1
  Al  Al32  1  0.11041932  0.75144538  0.88580261  1
  Al  Al33  1  0.77964385  0.76412921  0.32050844  1
  Al  Al34  1  0.88180041  0.87454489  0.07229228  1
  Al  Al35  1  0.56875886  0.86899225  0.57276072  1
  N  N36  1  0.21165965  0.22480492  0.32774271  1
  N  N37  1  0.10960519  0.09524454  0.09457615  1
  N  N38  1  0.86867826  0.21958400  0.83035805  1
  N  N39  1  0.77501384  0.09237104  0.63055139  1
  N  N40  1  0.56892769  0.21463019  0.38133850  1
  N  N41  1  0.44642889  0.09457643  0.11112128  1
  N  N42  1  0.21407625  0.22984062  0.82669390  1
  N  N43  1  0.08323334  0.11182340  0.59051198  1
  N  N44  1  0.86533183  0.21979592  0.31559280  1
  N  N45  1  0.77408083  0.09090246  0.12082174  1
  N  N46  1  0.57024039  0.20976916  0.87787203  1
  N  N47  1  0.46523923  0.08691902  0.60926881  1
  N  N48  1  0.24003090  0.51338764  0.31584700  1
  N  N49  1  0.10826682  0.42975517  0.07811859  1
  N  N50  1  0.89029019  0.53626146  0.83296835  1
  N  N51  1  0.76201835  0.41696335  0.56710438  1
  N  N52  1  0.56373261  0.51506437  0.31711451  1
  N  N53  1  0.44235121  0.43100377  0.07314729  1
  N  N54  1  0.22203475  0.53838468  0.83081404  1
  N  N55  1  0.11621060  0.44669624  0.56251402  1
  N  N56  1  0.88916777  0.53469063  0.33468673  1
  N  N57  1  0.77764758  0.42988533  0.07589172  1
  N  N58  1  0.56964411  0.51199964  0.82537770  1
  N  N59  1  0.43582682  0.43744938  0.58063200  1
  N  N60  1  0.22450683  0.86924620  0.37742657  1
  N  N61  1  0.11203972  0.75542512  0.09311254  1
  N  N62  1  0.88934567  0.87276305  0.88131880  1
  N  N63  1  0.77174632  0.78324725  0.63412364  1
  N  N64  1  0.57965197  0.85963211  0.38449753  1
  N  N65  1  0.44689925  0.75910929  0.10542876  1
  N  N66  1  0.21565069  0.86175413  0.86124963  1
  N  N67  1  0.09496664  0.75256487  0.58313907  1
  N  N68  1  0.86144475  0.89112020  0.37532197  1
  N  N69  1  0.78027408  0.76146399  0.13011099  1
  N  N70  1  0.58598698  0.85945347  0.88891602  1
  N  N71  1  0.47047331  0.74987558  0.61938215  1
