# generated using pymatgen
data_Sc5Al13N18
_symmetry_space_group_name_H-M   'P 1'
_cell_length_a   9.95650705
_cell_length_b   9.93560524
_cell_length_c   9.99001935
_cell_angle_alpha   89.70223735
_cell_angle_beta   89.87245091
_cell_angle_gamma   60.11484013
_symmetry_Int_Tables_number   1
_chemical_formula_structural   Sc5Al13N18
_chemical_formula_sum   'Sc10 Al26 N36'
_cell_volume   856.82828965
_cell_formula_units_Z   2
loop_
 _symmetry_equiv_pos_site_id
 _symmetry_equiv_pos_as_xyz
  1  'x, y, z'
loop_
 _atom_site_type_symbol
 _atom_site_label
 _atom_site_symmetry_multiplicity
 _atom_site_fract_x
 _atom_site_fract_y
 _atom_site_fract_z
 _atom_site_occupancy
  Sc  Sc0  1  0.09408124  0.10786201  0.37185987  1
  Sc  Sc1  1  0.45229552  0.09611317  0.36097960  1
  Sc  Sc2  1  0.10111498  0.10308857  0.87291916  1
  Sc  Sc3  1  0.22439370  0.21376179  0.62200213  1
  Sc  Sc4  1  0.44799481  0.10066356  0.87711814  1
  Sc  Sc5  1  0.88458638  0.54108308  0.60978821  1
  Sc  Sc6  1  0.10486553  0.75291596  0.35767169  1
  Sc  Sc7  1  0.45463065  0.74968076  0.34840171  1
  Sc  Sc8  1  0.21721437  0.86749530  0.61047978  1
  Sc  Sc9  1  0.45682697  0.75216640  0.84861179  1
  Al  Al10  1  0.21857684  0.21176919  0.13489696  1
  Al  Al11  1  0.77925164  0.09028509  0.82442364  1
  Al  Al12  1  0.87411573  0.21391125  0.63574143  1
  Al  Al13  1  0.55302068  0.21376088  0.12897233  1
  Al  Al14  1  0.77344382  0.09627644  0.31324747  1
  Al  Al15  1  0.88276433  0.21097809  0.12545259  1
  Al  Al16  1  0.55767820  0.20982939  0.63221859  1
  Al  Al17  1  0.11494801  0.43219096  0.37630018  1
  Al  Al18  1  0.22961091  0.52898154  0.12798469  1
  Al  Al19  1  0.77725866  0.42981381  0.88407387  1
  Al  Al20  1  0.44786907  0.42355219  0.38227906  1
  Al  Al21  1  0.55960128  0.52813943  0.12838860  1
  Al  Al22  1  0.10364401  0.43799524  0.88517279  1
  Al  Al23  1  0.22047034  0.54237976  0.63385071  1
  Al  Al24  1  0.77020536  0.42178918  0.37838295  1
  Al  Al25  1  0.89186170  0.53347349  0.13445003  1
  Al  Al26  1  0.44702183  0.42672599  0.87982903  1
  Al  Al27  1  0.56001601  0.52629134  0.63287767  1
  Al  Al28  1  0.22399975  0.86985097  0.10214283  1
  Al  Al29  1  0.78609230  0.76309988  0.82166628  1
  Al  Al30  1  0.87563572  0.88334229  0.56686242  1
  Al  Al31  1  0.56784718  0.86373450  0.07803562  1
  Al  Al32  1  0.11183841  0.75238637  0.88411057  1
  Al  Al33  1  0.78076138  0.76278284  0.31962352  1
  Al  Al34  1  0.88184274  0.87504187  0.06963121  1
  Al  Al35  1  0.56977354  0.86802577  0.57235927  1
  N  N36  1  0.21201855  0.22492037  0.32598156  1
  N  N37  1  0.10990476  0.09498820  0.09482905  1
  N  N38  1  0.86785812  0.22022865  0.83180620  1
  N  N39  1  0.77910406  0.09126016  0.62486640  1
  N  N40  1  0.56067705  0.22066984  0.32072419  1
  N  N41  1  0.44460928  0.09509914  0.10264416  1
  N  N42  1  0.21261139  0.22940616  0.83261968  1
  N  N43  1  0.08526493  0.11216251  0.59202796  1
  N  N44  1  0.86623509  0.21911131  0.31535616  1
  N  N45  1  0.77743021  0.09081596  0.11159148  1
  N  N46  1  0.56051619  0.21823824  0.82673836  1
  N  N47  1  0.46445456  0.08872453  0.58814855  1
  N  N48  1  0.24036808  0.51391947  0.31552549  1
  N  N49  1  0.10837228  0.43050957  0.07836511  1
  N  N50  1  0.88962694  0.53726237  0.83214725  1
  N  N51  1  0.76375275  0.41706754  0.56759195  1
  N  N52  1  0.56485484  0.51355845  0.31775156  1
  N  N53  1  0.44453723  0.42774369  0.06994589  1
  N  N54  1  0.22241153  0.53848269  0.83001112  1
  N  N55  1  0.11947918  0.44283321  0.56402219  1
  N  N56  1  0.89104605  0.53384206  0.33586323  1
  N  N57  1  0.77807760  0.43068599  0.07617175  1
  N  N58  1  0.56857565  0.51459243  0.82508563  1
  N  N59  1  0.44046582  0.43080772  0.57659923  1
  N  N60  1  0.22080168  0.87225554  0.36112880  1
  N  N61  1  0.11334991  0.75573010  0.09131741  1
  N  N62  1  0.88993168  0.87178751  0.87841100  1
  N  N63  1  0.77196668  0.78314162  0.63220641  1
  N  N64  1  0.58176119  0.85540024  0.38020649  1
  N  N65  1  0.44724673  0.75749839  0.10442256  1
  N  N66  1  0.21402750  0.86184522  0.84561847  1
  N  N67  1  0.09613299  0.75097381  0.57947309  1
  N  N68  1  0.86085789  0.89089633  0.37323452  1
  N  N69  1  0.78296503  0.75985512  0.12851486  1
  N  N70  1  0.58509238  0.86019814  0.88886322  1
  N  N71  1  0.46878342  0.74908976  0.61118595  1
