# generated using pymatgen
data_Sc5Al13N18
_symmetry_space_group_name_H-M   'P 1'
_cell_length_a   9.91059418
_cell_length_b   9.90816993
_cell_length_c   10.03778331
_cell_angle_alpha   89.73357289
_cell_angle_beta   89.76041798
_cell_angle_gamma   60.09093646
_symmetry_Int_Tables_number   1
_chemical_formula_structural   Sc5Al13N18
_chemical_formula_sum   'Sc10 Al26 N36'
_cell_volume   854.38402589
_cell_formula_units_Z   2
loop_
 _symmetry_equiv_pos_site_id
 _symmetry_equiv_pos_as_xyz
  1  'x, y, z'
loop_
 _atom_site_type_symbol
 _atom_site_label
 _atom_site_symmetry_multiplicity
 _atom_site_fract_x
 _atom_site_fract_y
 _atom_site_fract_z
 _atom_site_occupancy
  Sc  Sc0  1  0.09571600  0.10388667  0.36699590  1
  Sc  Sc1  1  0.45177647  0.09630135  0.35750418  1
  Sc  Sc2  1  0.10103748  0.09933334  0.88111509  1
  Sc  Sc3  1  0.22163991  0.21252527  0.62104683  1
  Sc  Sc4  1  0.44730852  0.10362876  0.87689119  1
  Sc  Sc5  1  0.88287565  0.54230181  0.61222554  1
  Sc  Sc6  1  0.10353600  0.75245298  0.35949812  1
  Sc  Sc7  1  0.45805991  0.74568644  0.36774304  1
  Sc  Sc8  1  0.21802611  0.86780188  0.62281022  1
  Sc  Sc9  1  0.45127090  0.75125942  0.86705010  1
  Al  Al10  1  0.21801196  0.21243573  0.13500921  1
  Al  Al11  1  0.77515641  0.09975882  0.88295874  1
  Al  Al12  1  0.87370558  0.21011389  0.63268114  1
  Al  Al13  1  0.55976325  0.21253111  0.13350538  1
  Al  Al14  1  0.77075461  0.10221554  0.37764510  1
  Al  Al15  1  0.87823717  0.21050870  0.13137632  1
  Al  Al16  1  0.56004881  0.20893907  0.62977328  1
  Al  Al17  1  0.11338610  0.43233398  0.37596342  1
  Al  Al18  1  0.23037913  0.52845503  0.12695973  1
  Al  Al19  1  0.77806088  0.42699536  0.88163780  1
  Al  Al20  1  0.44741468  0.42380756  0.38117270  1
  Al  Al21  1  0.55920543  0.52973165  0.12902186  1
  Al  Al22  1  0.10405513  0.43711557  0.88443803  1
  Al  Al23  1  0.22111461  0.54143735  0.63399277  1
  Al  Al24  1  0.77202132  0.42186900  0.37783765  1
  Al  Al25  1  0.89175183  0.53089786  0.13007073  1
  Al  Al26  1  0.44827374  0.42548398  0.87813383  1
  Al  Al27  1  0.55964195  0.52746462  0.63275286  1
  Al  Al28  1  0.22578447  0.86869232  0.13426934  1
  Al  Al29  1  0.78427164  0.76397116  0.82797410  1
  Al  Al30  1  0.88396665  0.88129778  0.60809598  1
  Al  Al31  1  0.56603980  0.86451507  0.07625691  1
  Al  Al32  1  0.11033202  0.75502551  0.89105637  1
  Al  Al33  1  0.78081098  0.76160054  0.31190459  1
  Al  Al34  1  0.88463230  0.87716319  0.10355410  1
  Al  Al35  1  0.56977145  0.87133453  0.57202143  1
  N  N36  1  0.21068646  0.22505203  0.32519581  1
  N  N37  1  0.10780923  0.09586652  0.09850602  1
  N  N38  1  0.86841336  0.21638731  0.82309907  1
  N  N39  1  0.77505912  0.09761376  0.57180813  1
  N  N40  1  0.56477699  0.21902796  0.32122094  1
  N  N41  1  0.44624284  0.09579732  0.10339959  1
  N  N42  1  0.21042793  0.22694605  0.83149029  1
  N  N43  1  0.08615978  0.10701160  0.58295996  1
  N  N44  1  0.86366203  0.21700258  0.31691962  1
  N  N45  1  0.77285397  0.10191016  0.07334429  1
  N  N46  1  0.56681581  0.21583667  0.81919075  1
  N  N47  1  0.46210401  0.09124862  0.58606000  1
  N  N48  1  0.23990894  0.51317348  0.31409442  1
  N  N49  1  0.10950928  0.42942444  0.07631884  1
  N  N50  1  0.88902321  0.53698180  0.83248323  1
  N  N51  1  0.76479394  0.41681163  0.56683874  1
  N  N52  1  0.56535999  0.51422456  0.31666578  1
  N  N53  1  0.44632777  0.42573765  0.06855350  1
  N  N54  1  0.22254817  0.53887641  0.82892341  1
  N  N55  1  0.11801308  0.44357221  0.56347445  1
  N  N56  1  0.89095053  0.53326717  0.33189339  1
  N  N57  1  0.77863912  0.42716675  0.07378739  1
  N  N58  1  0.56809511  0.51619832  0.82256532  1
  N  N59  1  0.43995340  0.43195541  0.57480788  1
  N  N60  1  0.22402861  0.86882536  0.32598723  1
  N  N61  1  0.11600571  0.75477676  0.08855123  1
  N  N62  1  0.89144816  0.87399211  0.86536059  1
  N  N63  1  0.77016456  0.78456805  0.63566181  1
  N  N64  1  0.58476341  0.85614379  0.38024763  1
  N  N65  1  0.44814882  0.75561501  0.09621794  1
  N  N66  1  0.21139586  0.86226231  0.83367556  1
  N  N67  1  0.09643493  0.75281216  0.57525154  1
  N  N68  1  0.86703316  0.89198443  0.32248077  1
  N  N69  1  0.78072865  0.75521388  0.12049249  1
  N  N70  1  0.57901676  0.86377454  0.88611631  1
  N  N71  1  0.46718292  0.74890826  0.59736496  1
