# generated using pymatgen
data_Sc5Al13N18
_symmetry_space_group_name_H-M   'P 1'
_cell_length_a   9.89947610
_cell_length_b   9.86655020
_cell_length_c   10.03471046
_cell_angle_alpha   89.87769631
_cell_angle_beta   89.67463009
_cell_angle_gamma   60.11958455
_symmetry_Int_Tables_number   1
_chemical_formula_structural   Sc5Al13N18
_chemical_formula_sum   'Sc10 Al26 N36'
_cell_volume   849.82195670
_cell_formula_units_Z   2
loop_
 _symmetry_equiv_pos_site_id
 _symmetry_equiv_pos_as_xyz
  1  'x, y, z'
loop_
 _atom_site_type_symbol
 _atom_site_label
 _atom_site_symmetry_multiplicity
 _atom_site_fract_x
 _atom_site_fract_y
 _atom_site_fract_z
 _atom_site_occupancy
  Sc  Sc0  1  0.09501032  0.10380605  0.37783946  1
  Sc  Sc1  1  0.45039238  0.09772103  0.36835078  1
  Sc  Sc2  1  0.10053886  0.10121941  0.89171086  1
  Sc  Sc3  1  0.22291345  0.21251264  0.63116684  1
  Sc  Sc4  1  0.44818929  0.10077788  0.89271747  1
  Sc  Sc5  1  0.88391971  0.54197905  0.63212078  1
  Sc  Sc6  1  0.10268326  0.75161997  0.38130665  1
  Sc  Sc7  1  0.45529473  0.74852600  0.37435627  1
  Sc  Sc8  1  0.22080701  0.86784139  0.63513070  1
  Sc  Sc9  1  0.45085458  0.75298186  0.88836836  1
  Al  Al10  1  0.21632320  0.21450598  0.14634395  1
  Al  Al11  1  0.77517227  0.09746976  0.89005617  1
  Al  Al12  1  0.87409320  0.20907322  0.64342293  1
  Al  Al13  1  0.56112350  0.21186545  0.14350024  1
  Al  Al14  1  0.77233648  0.09905153  0.39254739  1
  Al  Al15  1  0.87815260  0.20993863  0.14164713  1
  Al  Al16  1  0.56214406  0.20702877  0.64042349  1
  Al  Al17  1  0.11180383  0.43428533  0.38687938  1
  Al  Al18  1  0.22852929  0.53165889  0.13724483  1
  Al  Al19  1  0.77668301  0.42755279  0.89394768  1
  Al  Al20  1  0.44835812  0.42331744  0.39176726  1
  Al  Al21  1  0.55971976  0.52877915  0.14117887  1
  Al  Al22  1  0.10657933  0.43609186  0.89723386  1
  Al  Al23  1  0.22309575  0.54020556  0.64644943  1
  Al  Al24  1  0.77247191  0.42275927  0.38882594  1
  Al  Al25  1  0.89005428  0.53777895  0.14468409  1
  Al  Al26  1  0.44858257  0.42584056  0.88864758  1
  Al  Al27  1  0.56052452  0.52829210  0.64214525  1
  Al  Al28  1  0.22067313  0.86934830  0.14365506  1
  Al  Al29  1  0.78873390  0.75622762  0.90067696  1
  Al  Al30  1  0.88477735  0.87615347  0.64618622  1
  Al  Al31  1  0.56485127  0.86677115  0.13250896  1
  Al  Al32  1  0.10675586  0.75753094  0.89651845  1
  Al  Al33  1  0.78246887  0.76333930  0.38522186  1
  Al  Al34  1  0.88377037  0.87745885  0.13960956  1
  Al  Al35  1  0.56659106  0.87176931  0.61565379  1
  N  N36  1  0.20899711  0.22646209  0.33640255  1
  N  N37  1  0.10703087  0.09696579  0.10908686  1
  N  N38  1  0.86784506  0.21677741  0.83412133  1
  N  N39  1  0.77786404  0.09284250  0.58537716  1
  N  N40  1  0.56748737  0.21735957  0.33146408  1
  N  N41  1  0.44430768  0.09907617  0.11293737  1
  N  N42  1  0.21179324  0.22692455  0.84126877  1
  N  N43  1  0.08711670  0.10722070  0.59413611  1
  N  N44  1  0.86315978  0.21589411  0.32783770  1
  N  N45  1  0.77624414  0.09558694  0.08069179  1
  N  N46  1  0.56575647  0.21527345  0.82982677  1
  N  N47  1  0.46465320  0.08790723  0.59100773  1
  N  N48  1  0.23972662  0.51526590  0.32499929  1
  N  N49  1  0.10911183  0.43065071  0.08854068  1
  N  N50  1  0.88960779  0.53910283  0.84666867  1
  N  N51  1  0.76701521  0.41673600  0.57798766  1
  N  N52  1  0.56585286  0.51416379  0.32836321  1
  N  N53  1  0.44659490  0.42627975  0.07945631  1
  N  N54  1  0.22333311  0.53838247  0.84059889  1
  N  N55  1  0.11751032  0.44435205  0.57463539  1
  N  N56  1  0.88909713  0.53846261  0.34072007  1
  N  N57  1  0.77843964  0.42852461  0.08590622  1
  N  N58  1  0.56737181  0.51866718  0.83220930  1
  N  N59  1  0.44140640  0.43045731  0.58560352  1
  N  N60  1  0.21944706  0.86797448  0.33516694  1
  N  N61  1  0.10917075  0.75857217  0.09309214  1
  N  N62  1  0.88904713  0.87275423  0.84045081  1
  N  N63  1  0.77698320  0.77819837  0.57718389  1
  N  N64  1  0.57773428  0.85969429  0.33131656  1
  N  N65  1  0.44616409  0.75597998  0.10810146  1
  N  N66  1  0.21207662  0.86343828  0.84534509  1
  N  N67  1  0.09864028  0.75273638  0.59300792  1
  N  N68  1  0.86746109  0.88898948  0.32752853  1
  N  N69  1  0.78725603  0.75579574  0.09186852  1
  N  N70  1  0.57770111  0.86415999  0.86369924  1
  N  N71  1  0.46930334  0.74894962  0.59737727  1
