# generated using pymatgen
data_Sc5Al13N18
_symmetry_space_group_name_H-M   'P 1'
_cell_length_a   9.94778249
_cell_length_b   9.91613104
_cell_length_c   10.02951596
_cell_angle_alpha   89.63041175
_cell_angle_beta   89.91567018
_cell_angle_gamma   60.05619213
_symmetry_Int_Tables_number   1
_chemical_formula_structural   Sc5Al13N18
_chemical_formula_sum   'Sc10 Al26 N36'
_cell_volume   857.26453313
_cell_formula_units_Z   2
loop_
 _symmetry_equiv_pos_site_id
 _symmetry_equiv_pos_as_xyz
  1  'x, y, z'
loop_
 _atom_site_type_symbol
 _atom_site_label
 _atom_site_symmetry_multiplicity
 _atom_site_fract_x
 _atom_site_fract_y
 _atom_site_fract_z
 _atom_site_occupancy
  Sc  Sc0  1  0.10195175  0.09517174  0.33037999  1
  Sc  Sc1  1  0.45613876  0.09627040  0.33779822  1
  Sc  Sc2  1  0.09862110  0.10607729  0.85057606  1
  Sc  Sc3  1  0.21932081  0.21547279  0.60666069  1
  Sc  Sc4  1  0.45525547  0.09243496  0.83084562  1
  Sc  Sc5  1  0.88226915  0.54092366  0.61413100  1
  Sc  Sc6  1  0.10483485  0.75705505  0.33912734  1
  Sc  Sc7  1  0.45032090  0.75727819  0.33062231  1
  Sc  Sc8  1  0.22449914  0.86797353  0.59908761  1
  Sc  Sc9  1  0.45924027  0.74907388  0.84864755  1
  Al  Al10  1  0.22155100  0.21238706  0.12875751  1
  Al  Al11  1  0.77707389  0.09684536  0.82740154  1
  Al  Al12  1  0.87359174  0.20614965  0.58020845  1
  Al  Al13  1  0.56034104  0.20266800  0.06803116  1
  Al  Al14  1  0.77026687  0.09819686  0.31508775  1
  Al  Al15  1  0.88040631  0.20611199  0.08735535  1
  Al  Al16  1  0.56464223  0.20611140  0.57281209  1
  Al  Al17  1  0.11213679  0.43513440  0.37575798  1
  Al  Al18  1  0.22854822  0.53194785  0.12892392  1
  Al  Al19  1  0.77643084  0.43032674  0.89153324  1
  Al  Al20  1  0.44523294  0.43088461  0.38498498  1
  Al  Al21  1  0.55792399  0.52870051  0.12938584  1
  Al  Al22  1  0.10656093  0.43546117  0.88613934  1
  Al  Al23  1  0.22383228  0.53655879  0.63739041  1
  Al  Al24  1  0.76910400  0.42698648  0.37429116  1
  Al  Al25  1  0.89032686  0.53649427  0.13660998  1
  Al  Al26  1  0.44394541  0.42955194  0.88292550  1
  Al  Al27  1  0.56023478  0.52698479  0.63629098  1
  Al  Al28  1  0.21983233  0.86447637  0.06415312  1
  Al  Al29  1  0.78558498  0.76195789  0.82489414  1
  Al  Al30  1  0.87689219  0.88269376  0.57532470  1
  Al  Al31  1  0.56612925  0.86929187  0.07444984  1
  Al  Al32  1  0.10006866  0.75936065  0.82375724  1
  Al  Al33  1  0.78083710  0.76507771  0.32269776  1
  Al  Al34  1  0.88946707  0.87035883  0.07004850  1
  Al  Al35  1  0.56908537  0.86764937  0.57276475  1
  N  N36  1  0.21244237  0.22446672  0.33121294  1
  N  N37  1  0.11403178  0.09188886  0.10167034  1
  N  N38  1  0.86673685  0.21213211  0.88982884  1
  N  N39  1  0.77470935  0.09726103  0.63492701  1
  N  N40  1  0.57061737  0.21437132  0.38247858  1
  N  N41  1  0.44692729  0.09491833  0.11260691  1
  N  N42  1  0.21480527  0.23052263  0.82560919  1
  N  N43  1  0.08185701  0.11071571  0.61785996  1
  N  N44  1  0.86806631  0.21386963  0.34284510  1
  N  N45  1  0.77383905  0.08879507  0.12476753  1
  N  N46  1  0.56779663  0.20991703  0.87779352  1
  N  N47  1  0.46481043  0.08713831  0.60653970  1
  N  N48  1  0.24052736  0.51362911  0.31828458  1
  N  N49  1  0.10850983  0.43096663  0.07936902  1
  N  N50  1  0.88994418  0.53503861  0.83494842  1
  N  N51  1  0.76053918  0.42066320  0.56566299  1
  N  N52  1  0.56176633  0.51826604  0.31807485  1
  N  N53  1  0.44229562  0.43115993  0.07494814  1
  N  N54  1  0.22432525  0.53447631  0.83168997  1
  N  N55  1  0.11525488  0.44912207  0.56212041  1
  N  N56  1  0.89010484  0.53610947  0.33578697  1
  N  N57  1  0.77491494  0.43656035  0.08471347  1
  N  N58  1  0.57167025  0.50930560  0.82658490  1
  N  N59  1  0.43672493  0.43809870  0.58079156  1
  N  N60  1  0.22451435  0.86626911  0.38953521  1
  N  N61  1  0.10823251  0.76191341  0.11916860  1
  N  N62  1  0.88894827  0.87276762  0.87985655  1
  N  N63  1  0.77122460  0.78317132  0.63547822  1
  N  N64  1  0.57966319  0.85802438  0.38350479  1
  N  N65  1  0.44433526  0.76025081  0.10337903  1
  N  N66  1  0.21412456  0.85846189  0.86841899  1
  N  N67  1  0.09146079  0.75866769  0.62632249  1
  N  N68  1  0.86543552  0.88868019  0.38402316  1
  N  N69  1  0.78176756  0.76339001  0.13112847  1
  N  N70  1  0.58477449  0.85929529  0.88985687  1
  N  N71  1  0.47208742  0.75037180  0.62435131  1
