# generated using pymatgen
data_Sc5Al13N18
_symmetry_space_group_name_H-M   'P 1'
_cell_length_a   9.92546129
_cell_length_b   9.89607104
_cell_length_c   10.01083657
_cell_angle_alpha   89.77135346
_cell_angle_beta   89.56019608
_cell_angle_gamma   60.07615799
_symmetry_Int_Tables_number   1
_chemical_formula_structural   Sc5Al13N18
_chemical_formula_sum   'Sc10 Al26 N36'
_cell_volume   852.18616422
_cell_formula_units_Z   2
loop_
 _symmetry_equiv_pos_site_id
 _symmetry_equiv_pos_as_xyz
  1  'x, y, z'
loop_
 _atom_site_type_symbol
 _atom_site_label
 _atom_site_symmetry_multiplicity
 _atom_site_fract_x
 _atom_site_fract_y
 _atom_site_fract_z
 _atom_site_occupancy
  Sc  Sc0  1  0.09455840  0.10397858  0.37774665  1
  Sc  Sc1  1  0.44884972  0.10050275  0.36611582  1
  Sc  Sc2  1  0.10064003  0.10139907  0.89158221  1
  Sc  Sc3  1  0.22244229  0.21302402  0.62996611  1
  Sc  Sc4  1  0.44739698  0.10317662  0.88718238  1
  Sc  Sc5  1  0.88352238  0.54278758  0.63079730  1
  Sc  Sc6  1  0.10116865  0.75181479  0.38302874  1
  Sc  Sc7  1  0.45293775  0.74695021  0.37249903  1
  Sc  Sc8  1  0.22026339  0.86897470  0.63442044  1
  Sc  Sc9  1  0.45066712  0.75197535  0.88169142  1
  Al  Al10  1  0.21695060  0.21369355  0.14613420  1
  Al  Al11  1  0.77529761  0.09929600  0.89089160  1
  Al  Al12  1  0.87370891  0.20982380  0.64293364  1
  Al  Al13  1  0.56105009  0.21211006  0.14332092  1
  Al  Al14  1  0.77192909  0.09908843  0.39329226  1
  Al  Al15  1  0.87803632  0.20977404  0.14208267  1
  Al  Al16  1  0.56210260  0.20695925  0.63992667  1
  Al  Al17  1  0.11229012  0.43388916  0.38674682  1
  Al  Al18  1  0.22858633  0.53170312  0.13730667  1
  Al  Al19  1  0.77689789  0.42681287  0.89370322  1
  Al  Al20  1  0.44802277  0.42340824  0.39203385  1
  Al  Al21  1  0.55947293  0.52877833  0.14047598  1
  Al  Al22  1  0.10726140  0.43581027  0.89685529  1
  Al  Al23  1  0.22289920  0.54067441  0.64624655  1
  Al  Al24  1  0.77177315  0.42179224  0.38902534  1
  Al  Al25  1  0.89192231  0.53308209  0.14127961  1
  Al  Al26  1  0.44859256  0.42594962  0.88871972  1
  Al  Al27  1  0.55996598  0.52844037  0.64165391  1
  Al  Al28  1  0.22094028  0.86915199  0.14405999  1
  Al  Al29  1  0.79067683  0.75585789  0.89148839  1
  Al  Al30  1  0.88511075  0.87713888  0.64915897  1
  Al  Al31  1  0.56269023  0.86791087  0.09543678  1
  Al  Al32  1  0.10828255  0.75748538  0.89725921  1
  Al  Al33  1  0.78498374  0.75872238  0.35661362  1
  Al  Al34  1  0.88529797  0.87904039  0.13716596  1
  Al  Al35  1  0.56941238  0.87007574  0.57572844  1
  N  N36  1  0.20830575  0.22661034  0.33654998  1
  N  N37  1  0.10715108  0.09680601  0.10953037  1
  N  N38  1  0.86839264  0.21698956  0.83418138  1
  N  N39  1  0.77814448  0.09319034  0.58611720  1
  N  N40  1  0.56753668  0.21784425  0.33178613  1
  N  N41  1  0.44473419  0.09869135  0.11440402  1
  N  N42  1  0.21120854  0.22733525  0.84121572  1
  N  N43  1  0.08646738  0.10817396  0.59397531  1
  N  N44  1  0.86298229  0.21539116  0.32838663  1
  N  N45  1  0.77579446  0.09699809  0.08122318  1
  N  N46  1  0.56666915  0.21588762  0.83024571  1
  N  N47  1  0.46351998  0.08958814  0.59444733  1
  N  N48  1  0.23924132  0.51583282  0.32527570  1
  N  N49  1  0.11052277  0.42948905  0.08824818  1
  N  N50  1  0.88998733  0.53822961  0.84910622  1
  N  N51  1  0.76588068  0.41695616  0.57791261  1
  N  N52  1  0.56592431  0.51342057  0.32803870  1
  N  N53  1  0.44640583  0.42631704  0.07969618  1
  N  N54  1  0.22347956  0.53857173  0.84102813  1
  N  N55  1  0.11822167  0.44483226  0.57434863  1
  N  N56  1  0.89027128  0.53454402  0.33875310  1
  N  N57  1  0.77826569  0.42727982  0.08558725  1
  N  N58  1  0.56803489  0.51753457  0.83277200  1
  N  N59  1  0.44125650  0.43061439  0.58592948  1
  N  N60  1  0.21758550  0.86819744  0.33617344  1
  N  N61  1  0.11021330  0.75826091  0.09339460  1
  N  N62  1  0.89044717  0.87491641  0.84537239  1
  N  N63  1  0.77843743  0.77701725  0.60049803  1
  N  N64  1  0.57557375  0.86096567  0.37341042  1
  N  N65  1  0.44601385  0.75589384  0.10981923  1
  N  N66  1  0.21205397  0.86407167  0.84581266  1
  N  N67  1  0.09873263  0.75356986  0.59464731  1
  N  N68  1  0.86738126  0.89044877  0.32626856  1
  N  N69  1  0.78752002  0.75468345  0.10574713  1
  N  N70  1  0.57673853  0.86464451  0.89770158  1
  N  N71  1  0.46758425  0.74880729  0.60185864  1
