# generated using pymatgen
data_Sc5Al13N18
_symmetry_space_group_name_H-M   'P 1'
_cell_length_a   9.87366661
_cell_length_b   9.83711816
_cell_length_c   10.14659252
_cell_angle_alpha   89.80461557
_cell_angle_beta   90.01934486
_cell_angle_gamma   60.05421241
_symmetry_Int_Tables_number   1
_chemical_formula_structural   Sc5Al13N18
_chemical_formula_sum   'Sc10 Al26 N36'
_cell_volume   853.94609557
_cell_formula_units_Z   2
loop_
 _symmetry_equiv_pos_site_id
 _symmetry_equiv_pos_as_xyz
  1  'x, y, z'
loop_
 _atom_site_type_symbol
 _atom_site_label
 _atom_site_symmetry_multiplicity
 _atom_site_fract_x
 _atom_site_fract_y
 _atom_site_fract_z
 _atom_site_occupancy
  Sc  Sc0  1  0.10037611  0.09917917  0.30170347  1
  Sc  Sc1  1  0.44841816  0.09818881  0.31470553  1
  Sc  Sc2  1  0.09800194  0.10383496  0.82824145  1
  Sc  Sc3  1  0.21783847  0.21380855  0.56400606  1
  Sc  Sc4  1  0.45402376  0.09597894  0.81491910  1
  Sc  Sc5  1  0.88164499  0.54433709  0.56556187  1
  Sc  Sc6  1  0.10581665  0.75530874  0.32039906  1
  Sc  Sc7  1  0.45253906  0.75222387  0.31034820  1
  Sc  Sc8  1  0.22230811  0.87081126  0.57727018  1
  Sc  Sc9  1  0.45848866  0.75091631  0.82151849  1
  Al  Al10  1  0.22268536  0.21049216  0.05317389  1
  Al  Al11  1  0.77606101  0.09752195  0.80940715  1
  Al  Al12  1  0.87521215  0.20871680  0.55933758  1
  Al  Al13  1  0.56210470  0.20629207  0.05744634  1
  Al  Al14  1  0.77283494  0.09836209  0.31149175  1
  Al  Al15  1  0.87777127  0.20960164  0.05771405  1
  Al  Al16  1  0.56125705  0.20894811  0.55810198  1
  Al  Al17  1  0.10615345  0.42934467  0.29677837  1
  Al  Al18  1  0.22644459  0.53604212  0.08792154  1
  Al  Al19  1  0.77366970  0.42365200  0.81016166  1
  Al  Al20  1  0.45274689  0.42064636  0.30624640  1
  Al  Al21  1  0.56189873  0.52990348  0.05740331  1
  Al  Al22  1  0.10602733  0.43720595  0.82041218  1
  Al  Al23  1  0.22447022  0.53933282  0.61845322  1
  Al  Al24  1  0.77668114  0.42559636  0.30766756  1
  Al  Al25  1  0.88602440  0.53983853  0.05741270  1
  Al  Al26  1  0.45178872  0.42480714  0.81612747  1
  Al  Al27  1  0.55939554  0.52941333  0.55856715  1
  Al  Al28  1  0.22150936  0.86535197  0.04828235  1
  Al  Al29  1  0.78420344  0.76277576  0.81255475  1
  Al  Al30  1  0.87632039  0.88118838  0.56280815  1
  Al  Al31  1  0.56411530  0.87050193  0.05829692  1
  Al  Al32  1  0.10136187  0.76072672  0.81567212  1
  Al  Al33  1  0.78165067  0.75974790  0.30540907  1
  Al  Al34  1  0.88852056  0.87385664  0.05810905  1
  Al  Al35  1  0.56763551  0.86922959  0.55699939  1
  N  N36  1  0.20843338  0.22275876  0.35652123  1
  N  N37  1  0.10953330  0.09340321  0.08512234  1
  N  N38  1  0.86348500  0.21666873  0.87373422  1
  N  N39  1  0.77464926  0.09644767  0.62015885  1
  N  N40  1  0.56585947  0.21518372  0.37109476  1
  N  N41  1  0.44653210  0.09572568  0.09875746  1
  N  N42  1  0.21744413  0.22536736  0.86650053  1
  N  N43  1  0.08503973  0.11008967  0.61659956  1
  N  N44  1  0.86935923  0.21429677  0.36933376  1
  N  N45  1  0.77877336  0.09229827  0.12010988  1
  N  N46  1  0.56801692  0.21383122  0.87140683  1
  N  N47  1  0.46180101  0.08820624  0.59974352  1
  N  N48  1  0.23547861  0.51488459  0.32538822  1
  N  N49  1  0.10634087  0.42858134  0.10499685  1
  N  N50  1  0.88450543  0.54010170  0.86411053  1
  N  N51  1  0.76689486  0.41775490  0.62259768  1
  N  N52  1  0.56624145  0.51773310  0.36946115  1
  N  N53  1  0.45305227  0.42302371  0.11382129  1
  N  N54  1  0.22610760  0.53964423  0.85139442  1
  N  N55  1  0.11084448  0.44052171  0.63202313  1
  N  N56  1  0.88940717  0.53854825  0.35256091  1
  N  N57  1  0.77856825  0.42727030  0.11720452  1
  N  N58  1  0.56763388  0.51758717  0.87279867  1
  N  N59  1  0.44590149  0.42754878  0.62231321  1
  N  N60  1  0.22297653  0.87213288  0.37060973  1
  N  N61  1  0.10920542  0.76259361  0.10464307  1
  N  N62  1  0.88695825  0.87656515  0.86890751  1
  N  N63  1  0.77115929  0.77948898  0.62630432  1
  N  N64  1  0.57740765  0.85974205  0.36911105  1
  N  N65  1  0.44631542  0.75874752  0.09293698  1
  N  N66  1  0.21623144  0.85926485  0.85748220  1
  N  N67  1  0.09313201  0.75739598  0.61898423  1
  N  N68  1  0.86603772  0.88497079  0.37300990  1
  N  N69  1  0.78228751  0.76035551  0.11566134  1
  N  N70  1  0.58065525  0.86344308  0.87538360  1
  N  N71  1  0.47110570  0.74747897  0.60729013  1
