# generated using pymatgen
data_Sc5Al13N18
_symmetry_space_group_name_H-M   'P 1'
_cell_length_a   9.90892446
_cell_length_b   9.87428725
_cell_length_c   10.02906642
_cell_angle_alpha   89.86901690
_cell_angle_beta   89.63532739
_cell_angle_gamma   60.11457982
_symmetry_Int_Tables_number   1
_chemical_formula_structural   Sc5Al13N18
_chemical_formula_sum   'Sc10 Al26 N36'
_cell_volume   850.77488768
_cell_formula_units_Z   2
loop_
 _symmetry_equiv_pos_site_id
 _symmetry_equiv_pos_as_xyz
  1  'x, y, z'
loop_
 _atom_site_type_symbol
 _atom_site_label
 _atom_site_symmetry_multiplicity
 _atom_site_fract_x
 _atom_site_fract_y
 _atom_site_fract_z
 _atom_site_occupancy
  Sc  Sc0  1  0.09471488  0.10397867  0.37792533  1
  Sc  Sc1  1  0.44920422  0.09962266  0.36585279  1
  Sc  Sc2  1  0.10046579  0.10130810  0.89167963  1
  Sc  Sc3  1  0.22281607  0.21253574  0.63092127  1
  Sc  Sc4  1  0.44767010  0.10173573  0.89179362  1
  Sc  Sc5  1  0.88389742  0.54191103  0.63240333  1
  Sc  Sc6  1  0.10264726  0.75160859  0.38156593  1
  Sc  Sc7  1  0.45405451  0.74775533  0.37179365  1
  Sc  Sc8  1  0.22067073  0.86809129  0.63498501  1
  Sc  Sc9  1  0.45050729  0.75272867  0.88730661  1
  Al  Al10  1  0.21596532  0.21470501  0.14627372  1
  Al  Al11  1  0.77518743  0.09758198  0.89017166  1
  Al  Al12  1  0.87403205  0.20912219  0.64340791  1
  Al  Al13  1  0.56131201  0.21205697  0.14337217  1
  Al  Al14  1  0.77235919  0.09904332  0.39264027  1
  Al  Al15  1  0.87816322  0.20990475  0.14172046  1
  Al  Al16  1  0.56231282  0.20699180  0.64031082  1
  Al  Al17  1  0.11177872  0.43430005  0.38695622  1
  Al  Al18  1  0.22854917  0.53164662  0.13718459  1
  Al  Al19  1  0.77667476  0.42750495  0.89403076  1
  Al  Al20  1  0.44848233  0.42320612  0.39179085  1
  Al  Al21  1  0.55986680  0.52840693  0.14101398  1
  Al  Al22  1  0.10657415  0.43614561  0.89718350  1
  Al  Al23  1  0.22309381  0.54023490  0.64640893  1
  Al  Al24  1  0.77247694  0.42263200  0.38889406  1
  Al  Al25  1  0.89053226  0.53722371  0.14501489  1
  Al  Al26  1  0.44867908  0.42582428  0.88856555  1
  Al  Al27  1  0.56057185  0.52813815  0.64197099  1
  Al  Al28  1  0.22031782  0.86943055  0.14362248  1
  Al  Al29  1  0.78994540  0.75565613  0.90215558  1
  Al  Al30  1  0.88487599  0.87612821  0.64658971  1
  Al  Al31  1  0.56409224  0.86737639  0.11817538  1
  Al  Al32  1  0.10682758  0.75754012  0.89652865  1
  Al  Al33  1  0.78503255  0.76185108  0.38409998  1
  Al  Al34  1  0.88422516  0.87743867  0.13994523  1
  Al  Al35  1  0.56589802  0.87176398  0.59218269  1
  N  N36  1  0.20804664  0.22691152  0.33632781  1
  N  N37  1  0.10703641  0.09696604  0.10903579  1
  N  N38  1  0.86789997  0.21678775  0.83420257  1
  N  N39  1  0.77796294  0.09276481  0.58554024  1
  N  N40  1  0.56790106  0.21756627  0.33141980  1
  N  N41  1  0.44389467  0.09997194  0.11425621  1
  N  N42  1  0.21128696  0.22721044  0.84110378  1
  N  N43  1  0.08701658  0.10736755  0.59418979  1
  N  N44  1  0.86317566  0.21583930  0.32795608  1
  N  N45  1  0.77634428  0.09555814  0.08079850  1
  N  N46  1  0.56608073  0.21534167  0.82978334  1
  N  N47  1  0.46444949  0.08853065  0.59153095  1
  N  N48  1  0.23982237  0.51520069  0.32507751  1
  N  N49  1  0.10930171  0.43051593  0.08847977  1
  N  N50  1  0.88938781  0.53944243  0.84701249  1
  N  N51  1  0.76696284  0.41673730  0.57807197  1
  N  N52  1  0.56630581  0.51337455  0.32826245  1
  N  N53  1  0.44661938  0.42625197  0.07937928  1
  N  N54  1  0.22339741  0.53837002  0.84065417  1
  N  N55  1  0.11752374  0.44444349  0.57477583  1
  N  N56  1  0.88947716  0.53782584  0.34080762  1
  N  N57  1  0.77854412  0.42840556  0.08595721  1
  N  N58  1  0.56763611  0.51837337  0.83217977  1
  N  N59  1  0.44143138  0.43043433  0.58565159  1
  N  N60  1  0.21833293  0.86847523  0.33514390  1
  N  N61  1  0.10933759  0.75851493  0.09304004  1
  N  N62  1  0.88888022  0.87275041  0.84086997  1
  N  N63  1  0.77890312  0.77720506  0.57796507  1
  N  N64  1  0.57674213  0.86046157  0.34446659  1
  N  N65  1  0.44572810  0.75543261  0.10962233  1
  N  N66  1  0.21171033  0.86368386  0.84532078  1
  N  N67  1  0.09879188  0.75279694  0.59332101  1
  N  N68  1  0.86782723  0.88916696  0.32768204  1
  N  N69  1  0.78934463  0.75462606  0.09486952  1
  N  N70  1  0.57665895  0.86452270  0.88485566  1
  N  N71  1  0.46904409  0.74870007  0.59798137  1
