# generated using pymatgen
data_Sc5Al13N18
_symmetry_space_group_name_H-M   'P 1'
_cell_length_a   9.84045779
_cell_length_b   9.82056497
_cell_length_c   10.14736286
_cell_angle_alpha   89.91736941
_cell_angle_beta   89.92041235
_cell_angle_gamma   60.08007681
_symmetry_Int_Tables_number   1
_chemical_formula_structural   Sc5Al13N18
_chemical_formula_sum   'Sc10 Al26 N36'
_cell_volume   849.93338136
_cell_formula_units_Z   2
loop_
 _symmetry_equiv_pos_site_id
 _symmetry_equiv_pos_as_xyz
  1  'x, y, z'
loop_
 _atom_site_type_symbol
 _atom_site_label
 _atom_site_symmetry_multiplicity
 _atom_site_fract_x
 _atom_site_fract_y
 _atom_site_fract_z
 _atom_site_occupancy
  Sc  Sc0  1  0.09793188  0.10264336  0.38829776  1
  Sc  Sc1  1  0.45347334  0.09376679  0.39091841  1
  Sc  Sc2  1  0.10059116  0.10140535  0.90818417  1
  Sc  Sc3  1  0.22224736  0.21257172  0.64637936  1
  Sc  Sc4  1  0.45098735  0.09763607  0.90389439  1
  Sc  Sc5  1  0.88372309  0.54217720  0.64433378  1
  Sc  Sc6  1  0.10314402  0.75315537  0.39336611  1
  Sc  Sc7  1  0.45803157  0.74873064  0.39946714  1
  Sc  Sc8  1  0.21914601  0.86918847  0.65078983  1
  Sc  Sc9  1  0.45307432  0.75301628  0.89755615  1
  Al  Al10  1  0.21949980  0.21317767  0.15863874  1
  Al  Al11  1  0.77562967  0.09789001  0.90169129  1
  Al  Al12  1  0.87476945  0.20905902  0.65382933  1
  Al  Al13  1  0.55966602  0.21054429  0.15576846  1
  Al  Al14  1  0.77206716  0.09933552  0.40366790  1
  Al  Al15  1  0.87787429  0.21022252  0.15443548  1
  Al  Al16  1  0.56131732  0.20772708  0.65326369  1
  Al  Al17  1  0.11205588  0.43375460  0.39816666  1
  Al  Al18  1  0.22743201  0.53273673  0.15007792  1
  Al  Al19  1  0.77699519  0.42661540  0.90597825  1
  Al  Al20  1  0.44786219  0.42396772  0.40272972  1
  Al  Al21  1  0.55812834  0.53205464  0.15323856  1
  Al  Al22  1  0.10700006  0.43583642  0.91005913  1
  Al  Al23  1  0.22277909  0.54020573  0.65744950  1
  Al  Al24  1  0.77253011  0.42344566  0.39994975  1
  Al  Al25  1  0.88812577  0.53976232  0.15474301  1
  Al  Al26  1  0.44744572  0.42611462  0.90209333  1
  Al  Al27  1  0.55997143  0.52785013  0.65562048  1
  Al  Al28  1  0.22392208  0.86793817  0.15526505  1
  Al  Al29  1  0.78723980  0.75724563  0.90731527  1
  Al  Al30  1  0.88417988  0.87650752  0.65647697  1
  Al  Al31  1  0.56365958  0.86645413  0.15458052  1
  Al  Al32  1  0.10654746  0.75762458  0.90897229  1
  Al  Al33  1  0.78018654  0.76426668  0.40056167  1
  Al  Al34  1  0.88180701  0.87754449  0.15029591  1
  Al  Al35  1  0.56928749  0.87121436  0.65620960  1
  N  N36  1  0.21358782  0.22495573  0.34628773  1
  N  N37  1  0.10742134  0.09701233  0.12209163  1
  N  N38  1  0.86901578  0.21623220  0.84327797  1
  N  N39  1  0.77705936  0.09352558  0.59519614  1
  N  N40  1  0.56564268  0.21678073  0.34209485  1
  N  N41  1  0.44618736  0.09541076  0.11908118  1
  N  N42  1  0.21332365  0.22551168  0.85440924  1
  N  N43  1  0.08742942  0.10733799  0.60189303  1
  N  N44  1  0.86350612  0.21590574  0.33868049  1
  N  N45  1  0.77579132  0.09612274  0.09108096  1
  N  N46  1  0.56503462  0.21567608  0.84111950  1
  N  N47  1  0.46421140  0.08695237  0.60647918  1
  N  N48  1  0.23819357  0.51704440  0.33593130  1
  N  N49  1  0.10876871  0.43097365  0.09948336  1
  N  N50  1  0.88965105  0.53827075  0.85718216  1
  N  N51  1  0.76613622  0.41766533  0.58781434  1
  N  N52  1  0.56405926  0.51748219  0.33893855  1
  N  N53  1  0.44566478  0.42674760  0.09130515  1
  N  N54  1  0.22268375  0.53864235  0.85056787  1
  N  N55  1  0.11740158  0.44354797  0.58432209  1
  N  N56  1  0.88828596  0.53965465  0.34983608  1
  N  N57  1  0.77785749  0.42861879  0.09636553  1
  N  N58  1  0.56697168  0.51788663  0.84367289  1
  N  N59  1  0.44117671  0.43041091  0.59566992  1
  N  N60  1  0.22487355  0.86539861  0.34429845  1
  N  N61  1  0.10842012  0.75915044  0.10346123  1
  N  N62  1  0.88893028  0.87353314  0.84970436  1
  N  N63  1  0.77416061  0.77923287  0.58843220  1
  N  N64  1  0.57790765  0.85796359  0.33765173  1
  N  N65  1  0.44767566  0.75779053  0.11180193  1
  N  N66  1  0.21238625  0.86398277  0.85827593  1
  N  N67  1  0.09841493  0.75318565  0.60299113  1
  N  N68  1  0.86605713  0.88844403  0.33721340  1
  N  N69  1  0.78096728  0.75928929  0.09595473  1
  N  N70  1  0.58121517  0.86291917  0.84358199  1
  N  N71  1  0.46785800  0.74989933  0.61513168  1
