# generated using pymatgen
data_Sc5Al13N18
_symmetry_space_group_name_H-M   'P 1'
_cell_length_a   9.93995944
_cell_length_b   9.90653723
_cell_length_c   10.05622578
_cell_angle_alpha   89.61970080
_cell_angle_beta   89.95304482
_cell_angle_gamma   60.05512971
_symmetry_Int_Tables_number   1
_chemical_formula_structural   Sc5Al13N18
_chemical_formula_sum   'Sc10 Al26 N36'
_cell_volume   858.02859761
_cell_formula_units_Z   2
loop_
 _symmetry_equiv_pos_site_id
 _symmetry_equiv_pos_as_xyz
  1  'x, y, z'
loop_
 _atom_site_type_symbol
 _atom_site_label
 _atom_site_symmetry_multiplicity
 _atom_site_fract_x
 _atom_site_fract_y
 _atom_site_fract_z
 _atom_site_occupancy
  Sc  Sc0  1  0.10177517  0.09467226  0.32786308  1
  Sc  Sc1  1  0.45587512  0.09583207  0.33762374  1
  Sc  Sc2  1  0.09752733  0.10628643  0.84526615  1
  Sc  Sc3  1  0.21924297  0.21500105  0.60614316  1
  Sc  Sc4  1  0.45550825  0.09257888  0.83037011  1
  Sc  Sc5  1  0.88273317  0.54048434  0.61588363  1
  Sc  Sc6  1  0.10467850  0.75704783  0.33889413  1
  Sc  Sc7  1  0.45046533  0.75683341  0.33010458  1
  Sc  Sc8  1  0.22411293  0.86842892  0.59813109  1
  Sc  Sc9  1  0.45858540  0.74974459  0.84823102  1
  Al  Al10  1  0.22142554  0.21272521  0.12843032  1
  Al  Al11  1  0.77707710  0.09795474  0.82409207  1
  Al  Al12  1  0.87413935  0.20456983  0.56625127  1
  Al  Al13  1  0.56095180  0.20274364  0.06839780  1
  Al  Al14  1  0.77060882  0.09814887  0.31735187  1
  Al  Al15  1  0.88099780  0.20466555  0.07910012  1
  Al  Al16  1  0.56478394  0.20593052  0.57239627  1
  Al  Al17  1  0.11213852  0.43500978  0.37600255  1
  Al  Al18  1  0.22859883  0.53201239  0.12917275  1
  Al  Al19  1  0.77623436  0.43084029  0.89104674  1
  Al  Al20  1  0.44512977  0.43087427  0.38528963  1
  Al  Al21  1  0.55828506  0.52819186  0.12927534  1
  Al  Al22  1  0.10688507  0.43525638  0.88641959  1
  Al  Al23  1  0.22397471  0.53645244  0.63751201  1
  Al  Al24  1  0.76869838  0.42858417  0.37638783  1
  Al  Al25  1  0.89065966  0.53617589  0.13652477  1
  Al  Al26  1  0.44391685  0.42952365  0.88328787  1
  Al  Al27  1  0.56073232  0.52692087  0.63709359  1
  Al  Al28  1  0.21936394  0.86493221  0.06360306  1
  Al  Al29  1  0.78538185  0.76259474  0.82517654  1
  Al  Al30  1  0.87660354  0.88272984  0.57539951  1
  Al  Al31  1  0.56599749  0.86938216  0.07422720  1
  Al  Al32  1  0.09988548  0.75970421  0.82348142  1
  Al  Al33  1  0.78076538  0.76474393  0.32254159  1
  Al  Al34  1  0.88959994  0.87097622  0.07019453  1
  Al  Al35  1  0.56903259  0.86737893  0.57293882  1
  N  N36  1  0.21202281  0.22427515  0.33073552  1
  N  N37  1  0.11200911  0.09282032  0.10287366  1
  N  N38  1  0.86643150  0.21221273  0.88939102  1
  N  N39  1  0.77513665  0.09782333  0.63333072  1
  N  N40  1  0.56973481  0.21431124  0.38221924  1
  N  N41  1  0.44718009  0.09491526  0.11289785  1
  N  N42  1  0.21484973  0.23032080  0.82560018  1
  N  N43  1  0.08120357  0.11086593  0.61911359  1
  N  N44  1  0.86917206  0.20984919  0.36376632  1
  N  N45  1  0.77534931  0.09062470  0.12749325  1
  N  N46  1  0.56874396  0.20951192  0.87847645  1
  N  N47  1  0.46481954  0.08708600  0.60665870  1
  N  N48  1  0.24048929  0.51361594  0.31812136  1
  N  N49  1  0.10873012  0.43106696  0.07915769  1
  N  N50  1  0.88992593  0.53536724  0.83598609  1
  N  N51  1  0.76026638  0.42298607  0.56712005  1
  N  N52  1  0.56268769  0.51711302  0.31742810  1
  N  N53  1  0.44217106  0.43119826  0.07484911  1
  N  N54  1  0.22439166  0.53443776  0.83149756  1
  N  N55  1  0.11556895  0.44888834  0.56176978  1
  N  N56  1  0.89037597  0.53555257  0.33484404  1
  N  N57  1  0.77603831  0.43459851  0.08529986  1
  N  N58  1  0.57135887  0.50966041  0.82721280  1
  N  N59  1  0.43690502  0.43824407  0.58066591  1
  N  N60  1  0.22450205  0.86663154  0.38909336  1
  N  N61  1  0.10818105  0.76213588  0.11947091  1
  N  N62  1  0.88861470  0.87385730  0.88018023  1
  N  N63  1  0.77104715  0.78324394  0.63621183  1
  N  N64  1  0.57976087  0.85733258  0.38399517  1
  N  N65  1  0.44424706  0.76039975  0.10366221  1
  N  N66  1  0.21363289  0.85899263  0.86907873  1
  N  N67  1  0.09136210  0.75874706  0.62666744  1
  N  N68  1  0.86546815  0.88782261  0.38434057  1
  N  N69  1  0.78167096  0.76382989  0.13127681  1
  N  N70  1  0.58459932  0.85946235  0.89021045  1
  N  N71  1  0.47126417  0.75102246  0.62518989  1
