# generated using pymatgen
data_Sc5Al13N18
_symmetry_space_group_name_H-M   'P 1'
_cell_length_a   9.90020315
_cell_length_b   9.89610100
_cell_length_c   10.09273709
_cell_angle_alpha   89.65033724
_cell_angle_beta   89.85059546
_cell_angle_gamma   60.16118350
_symmetry_Int_Tables_number   1
_chemical_formula_structural   Sc5Al13N18
_chemical_formula_sum   'Sc10 Al26 N36'
_cell_volume   857.71452646
_cell_formula_units_Z   2
loop_
 _symmetry_equiv_pos_site_id
 _symmetry_equiv_pos_as_xyz
  1  'x, y, z'
loop_
 _atom_site_type_symbol
 _atom_site_label
 _atom_site_symmetry_multiplicity
 _atom_site_fract_x
 _atom_site_fract_y
 _atom_site_fract_z
 _atom_site_occupancy
  Sc  Sc0  1  0.09616941  0.10423589  0.36855743  1
  Sc  Sc1  1  0.45113089  0.09600450  0.35909736  1
  Sc  Sc2  1  0.10209912  0.09989646  0.88274636  1
  Sc  Sc3  1  0.22336498  0.21175891  0.62317574  1
  Sc  Sc4  1  0.44729382  0.10255826  0.87990001  1
  Sc  Sc5  1  0.88499595  0.54080522  0.61308665  1
  Sc  Sc6  1  0.10510746  0.75109833  0.35776871  1
  Sc  Sc7  1  0.45454296  0.74505103  0.37075612  1
  Sc  Sc8  1  0.21484389  0.86849325  0.62521613  1
  Sc  Sc9  1  0.45237118  0.75131038  0.86792033  1
  Al  Al10  1  0.21774179  0.21298037  0.13538123  1
  Al  Al11  1  0.77595127  0.09911622  0.87123774  1
  Al  Al12  1  0.87467076  0.21115611  0.63427198  1
  Al  Al13  1  0.55926701  0.21197638  0.13111704  1
  Al  Al14  1  0.76885086  0.10528110  0.37041068  1
  Al  Al15  1  0.87914646  0.21040736  0.12940042  1
  Al  Al16  1  0.56042501  0.20832361  0.63174532  1
  Al  Al17  1  0.11422741  0.43158221  0.37694341  1
  Al  Al18  1  0.23035889  0.52878497  0.12767982  1
  Al  Al19  1  0.77819939  0.42920125  0.88322289  1
  Al  Al20  1  0.44810834  0.42283996  0.38174140  1
  Al  Al21  1  0.55902842  0.53069158  0.13022787  1
  Al  Al22  1  0.10418349  0.43768046  0.88511400  1
  Al  Al23  1  0.22207563  0.54139021  0.63295111  1
  Al  Al24  1  0.77203343  0.42240419  0.37865411  1
  Al  Al25  1  0.89225781  0.53283080  0.13313838  1
  Al  Al26  1  0.44803616  0.42633958  0.87931966  1
  Al  Al27  1  0.55980070  0.52705582  0.63340085  1
  Al  Al28  1  0.22505735  0.86965356  0.13335009  1
  Al  Al29  1  0.78492539  0.76517635  0.82130845  1
  Al  Al30  1  0.87757708  0.88014816  0.56618409  1
  Al  Al31  1  0.56709828  0.86421780  0.07823877  1
  Al  Al32  1  0.11386939  0.75222023  0.88864750  1
  Al  Al33  1  0.77980766  0.76227479  0.31654972  1
  Al  Al34  1  0.88374319  0.87364667  0.06982022  1
  Al  Al35  1  0.56915311  0.86991922  0.57122770  1
  N  N36  1  0.21072107  0.22528709  0.32399302  1
  N  N37  1  0.10801560  0.09678952  0.09759852  1
  N  N38  1  0.86999018  0.21866732  0.82488628  1
  N  N39  1  0.77481787  0.09981193  0.58444655  1
  N  N40  1  0.56336461  0.21921390  0.31823820  1
  N  N41  1  0.44533886  0.09569499  0.10286222  1
  N  N42  1  0.21114321  0.22748655  0.83233723  1
  N  N43  1  0.08673061  0.10819421  0.58275750  1
  N  N44  1  0.86458029  0.21760600  0.31503867  1
  N  N45  1  0.77436981  0.09894411  0.07567619  1
  N  N46  1  0.56374225  0.21700536  0.82118583  1
  N  N47  1  0.46302703  0.09015345  0.58460434  1
  N  N48  1  0.24063342  0.51253948  0.31397077  1
  N  N49  1  0.10900287  0.43064931  0.07636088  1
  N  N50  1  0.88964889  0.53796882  0.83183793  1
  N  N51  1  0.76485388  0.41781225  0.56667197  1
  N  N52  1  0.56545470  0.51403977  0.31692693  1
  N  N53  1  0.44596255  0.42687068  0.06862455  1
  N  N54  1  0.22348308  0.53835008  0.82812919  1
  N  N55  1  0.11982063  0.44181382  0.56313625  1
  N  N56  1  0.89134315  0.53326380  0.33271071  1
  N  N57  1  0.77839147  0.42970668  0.07449001  1
  N  N58  1  0.56849262  0.51640258  0.82254667  1
  N  N59  1  0.44106362  0.43053190  0.57457193  1
  N  N60  1  0.22176866  0.87048101  0.32312718  1
  N  N61  1  0.11463020  0.75521107  0.08895158  1
  N  N62  1  0.89163317  0.87026005  0.87720486  1
  N  N63  1  0.77097233  0.78424098  0.63348736  1
  N  N64  1  0.58098182  0.85512613  0.37925535  1
  N  N65  1  0.44794675  0.75593755  0.09541563  1
  N  N66  1  0.21150730  0.86281729  0.83505308  1
  N  N67  1  0.09939686  0.75037937  0.57356838  1
  N  N68  1  0.86202387  0.88740566  0.37063924  1
  N  N69  1  0.78241335  0.76045302  0.12768628  1
  N  N70  1  0.58282937  0.86192719  0.88836288  1
  N  N71  1  0.46471279  0.74928631  0.59793471  1
