# generated using pymatgen
data_Sc5Al13N18
_symmetry_space_group_name_H-M   'P 1'
_cell_length_a   9.84116241
_cell_length_b   9.82115493
_cell_length_c   10.14559904
_cell_angle_alpha   89.91706000
_cell_angle_beta   89.91833279
_cell_angle_gamma   60.08048475
_symmetry_Int_Tables_number   1
_chemical_formula_structural   Sc5Al13N18
_chemical_formula_sum   'Sc10 Al26 N36'
_cell_volume   849.90099851
_cell_formula_units_Z   2
loop_
 _symmetry_equiv_pos_site_id
 _symmetry_equiv_pos_as_xyz
  1  'x, y, z'
loop_
 _atom_site_type_symbol
 _atom_site_label
 _atom_site_symmetry_multiplicity
 _atom_site_fract_x
 _atom_site_fract_y
 _atom_site_fract_z
 _atom_site_occupancy
  Sc  Sc0  1  0.09788377  0.10262974  0.37947279  1
  Sc  Sc1  1  0.45344603  0.09374910  0.38202329  1
  Sc  Sc2  1  0.10058630  0.10135994  0.89925701  1
  Sc  Sc3  1  0.22224834  0.21253810  0.63749073  1
  Sc  Sc4  1  0.45096032  0.09761371  0.89502613  1
  Sc  Sc5  1  0.88371444  0.54213969  0.63544839  1
  Sc  Sc6  1  0.10312769  0.75311556  0.38446817  1
  Sc  Sc7  1  0.45802632  0.74870760  0.39055313  1
  Sc  Sc8  1  0.21916299  0.86912101  0.64187935  1
  Sc  Sc9  1  0.45305965  0.75298762  0.88869921  1
  Al  Al10  1  0.21945963  0.21315103  0.14977924  1
  Al  Al11  1  0.77561002  0.09785882  0.89284659  1
  Al  Al12  1  0.87474727  0.20902554  0.64499910  1
  Al  Al13  1  0.55965513  0.21052336  0.14691746  1
  Al  Al14  1  0.77205086  0.09930602  0.39482240  1
  Al  Al15  1  0.87786434  0.21019146  0.14556589  1
  Al  Al16  1  0.56131182  0.20768754  0.64440666  1
  Al  Al17  1  0.11204084  0.43372880  0.38931579  1
  Al  Al18  1  0.22742809  0.53269013  0.14121532  1
  Al  Al19  1  0.77698211  0.42659485  0.89712614  1
  Al  Al20  1  0.44784835  0.42393425  0.39389259  1
  Al  Al21  1  0.55812180  0.53201144  0.14438523  1
  Al  Al22  1  0.10697545  0.43580911  0.90119663  1
  Al  Al23  1  0.22276480  0.54017572  0.64860002  1
  Al  Al24  1  0.77251049  0.42340803  0.39110094  1
  Al  Al25  1  0.88810827  0.53973750  0.14590268  1
  Al  Al26  1  0.44743698  0.42608519  0.89323323  1
  Al  Al27  1  0.55996950  0.52781857  0.64675744  1
  Al  Al28  1  0.22389569  0.86792823  0.14641549  1
  Al  Al29  1  0.78723009  0.75721225  0.89844988  1
  Al  Al30  1  0.88418368  0.87647125  0.64762593  1
  Al  Al31  1  0.56366140  0.86642649  0.14571526  1
  Al  Al32  1  0.10653917  0.75759156  0.90012543  1
  Al  Al33  1  0.78017688  0.76425194  0.39172315  1
  Al  Al34  1  0.88178535  0.87752098  0.14144144  1
  Al  Al35  1  0.56928520  0.87118101  0.64734599  1
  N  N36  1  0.21354673  0.22492336  0.33746998  1
  N  N37  1  0.10740423  0.09697987  0.11321616  1
  N  N38  1  0.86898574  0.21620861  0.83447044  1
  N  N39  1  0.77705381  0.09348973  0.58637059  1
  N  N40  1  0.56563111  0.21675431  0.33326920  1
  N  N41  1  0.44616243  0.09539346  0.11025738  1
  N  N42  1  0.21331136  0.22549024  0.84555869  1
  N  N43  1  0.08741790  0.10729488  0.59311349  1
  N  N44  1  0.86348791  0.21587517  0.32983913  1
  N  N45  1  0.77577076  0.09609374  0.08225202  1
  N  N46  1  0.56502297  0.21564525  0.83229156  1
  N  N47  1  0.46421312  0.08691497  0.59762936  1
  N  N48  1  0.23819710  0.51699191  0.32709271  1
  N  N49  1  0.10874561  0.43094615  0.09065081  1
  N  N50  1  0.88963668  0.53824273  0.84832906  1
  N  N51  1  0.76613065  0.41761510  0.57898745  1
  N  N52  1  0.56404685  0.51744084  0.33010973  1
  N  N53  1  0.44565654  0.42671671  0.08246654  1
  N  N54  1  0.22267002  0.53861339  0.84174347  1
  N  N55  1  0.11739813  0.44351761  0.57549651  1
  N  N56  1  0.88826722  0.53963413  0.34102214  1
  N  N57  1  0.77784297  0.42859822  0.08753696  1
  N  N58  1  0.56695905  0.51786342  0.83484292  1
  N  N59  1  0.44116599  0.43038027  0.58684861  1
  N  N60  1  0.22484359  0.86539426  0.33549233  1
  N  N61  1  0.10841046  0.75912047  0.09464764  1
  N  N62  1  0.88892771  0.87350113  0.84087789  1
  N  N63  1  0.77416001  0.77920545  0.57961366  1
  N  N64  1  0.57791041  0.85794377  0.32881182  1
  N  N65  1  0.44766022  0.75776332  0.10299312  1
  N  N66  1  0.21239297  0.86391815  0.84941165  1
  N  N67  1  0.09840648  0.75314216  0.59413044  1
  N  N68  1  0.86604061  0.88842224  0.32838123  1
  N  N69  1  0.78096282  0.75925517  0.08711618  1
  N  N70  1  0.58119665  0.86289295  0.83475837  1
  N  N71  1  0.46787718  0.74985478  0.60625890  1
