# generated using pymatgen
data_Sc5Al13N18
_symmetry_space_group_name_H-M   'P 1'
_cell_length_a   9.88292693
_cell_length_b   9.83780047
_cell_length_c   10.18901830
_cell_angle_alpha   89.74721699
_cell_angle_beta   89.99503660
_cell_angle_gamma   60.12063070
_symmetry_Int_Tables_number   1
_chemical_formula_structural   Sc5Al13N18
_chemical_formula_sum   'Sc10 Al26 N36'
_cell_volume   858.94959797
_cell_formula_units_Z   2
loop_
 _symmetry_equiv_pos_site_id
 _symmetry_equiv_pos_as_xyz
  1  'x, y, z'
loop_
 _atom_site_type_symbol
 _atom_site_label
 _atom_site_symmetry_multiplicity
 _atom_site_fract_x
 _atom_site_fract_y
 _atom_site_fract_z
 _atom_site_occupancy
  Sc  Sc0  1  0.09931878  0.10083183  0.30514017  1
  Sc  Sc1  1  0.44821247  0.09754686  0.31658264  1
  Sc  Sc2  1  0.09856482  0.10233455  0.82933689  1
  Sc  Sc3  1  0.21816054  0.21410221  0.56708627  1
  Sc  Sc4  1  0.45374930  0.09550328  0.81647993  1
  Sc  Sc5  1  0.88366673  0.54510980  0.56735455  1
  Sc  Sc6  1  0.10426944  0.75174459  0.35110960  1
  Sc  Sc7  1  0.45269823  0.75312777  0.31416162  1
  Sc  Sc8  1  0.22055718  0.86857978  0.57945102  1
  Sc  Sc9  1  0.45923437  0.75145523  0.82071146  1
  Al  Al10  1  0.22201424  0.21176690  0.05494882  1
  Al  Al11  1  0.77855642  0.09504273  0.81075124  1
  Al  Al12  1  0.87542918  0.20873793  0.56173496  1
  Al  Al13  1  0.56163300  0.20519698  0.05919555  1
  Al  Al14  1  0.77096588  0.10115789  0.31254180  1
  Al  Al15  1  0.87754203  0.21055780  0.05932955  1
  Al  Al16  1  0.56085391  0.20887147  0.56323839  1
  Al  Al17  1  0.10355773  0.42733311  0.29825357  1
  Al  Al18  1  0.23019703  0.53184151  0.11887072  1
  Al  Al19  1  0.77484551  0.42329203  0.81129456  1
  Al  Al20  1  0.45121131  0.42206919  0.33235482  1
  Al  Al21  1  0.56259332  0.53207828  0.06001624  1
  Al  Al22  1  0.10431600  0.43626119  0.82028308  1
  Al  Al23  1  0.22328553  0.54507161  0.63685992  1
  Al  Al24  1  0.77694527  0.42601426  0.30955011  1
  Al  Al25  1  0.88616075  0.53985172  0.05873229  1
  Al  Al26  1  0.44925670  0.42621714  0.84365718  1
  Al  Al27  1  0.55979238  0.52927125  0.56313784  1
  Al  Al28  1  0.22697004  0.86954910  0.05623875  1
  Al  Al29  1  0.78557282  0.76322011  0.81446798  1
  Al  Al30  1  0.87561377  0.88083137  0.56020500  1
  Al  Al31  1  0.56360827  0.87062187  0.05962807  1
  Al  Al32  1  0.10853731  0.75293851  0.88436224  1
  Al  Al33  1  0.77920139  0.76074796  0.30643817  1
  Al  Al34  1  0.88084794  0.87780572  0.06577317  1
  Al  Al35  1  0.56775159  0.86938681  0.55977907  1
  N  N36  1  0.20893149  0.22352020  0.36021008  1
  N  N37  1  0.10910811  0.09491787  0.08951272  1
  N  N38  1  0.86436536  0.21619524  0.87587631  1
  N  N39  1  0.77639283  0.09453715  0.62202238  1
  N  N40  1  0.56581831  0.21310794  0.37485387  1
  N  N41  1  0.44597993  0.09535807  0.10130220  1
  N  N42  1  0.21703614  0.22549938  0.86922545  1
  N  N43  1  0.08533229  0.10870998  0.61879430  1
  N  N44  1  0.86823492  0.21552173  0.37205194  1
  N  N45  1  0.77704512  0.09509256  0.12265315  1
  N  N46  1  0.57066203  0.20976702  0.87283770  1
  N  N47  1  0.46183358  0.08731876  0.60336501  1
  N  N48  1  0.23699354  0.51331450  0.30944119  1
  N  N49  1  0.10480584  0.42838066  0.10725094  1
  N  N50  1  0.88491635  0.54053460  0.86655270  1
  N  N51  1  0.76841847  0.41799923  0.62475709  1
  N  N52  1  0.56795395  0.51890357  0.37248112  1
  N  N53  1  0.45022931  0.42475341  0.09629346  1
  N  N54  1  0.22427235  0.54260113  0.83496554  1
  N  N55  1  0.11099321  0.43994654  0.63383645  1
  N  N56  1  0.88940096  0.53974413  0.35452001  1
  N  N57  1  0.77871114  0.42754491  0.11977056  1
  N  N58  1  0.57016031  0.51995671  0.87503133  1
  N  N59  1  0.44317549  0.42885274  0.61156363  1
  N  N60  1  0.22302463  0.87381556  0.36907984  1
  N  N61  1  0.11111344  0.75804558  0.08622288  1
  N  N62  1  0.88671180  0.87625509  0.87495129  1
  N  N63  1  0.77153176  0.78032289  0.62891214  1
  N  N64  1  0.57697684  0.86019161  0.37284259  1
  N  N65  1  0.44827863  0.75944984  0.09830645  1
  N  N66  1  0.21920098  0.85897098  0.86350610  1
  N  N67  1  0.09698901  0.74801061  0.57035669  1
  N  N68  1  0.85941792  0.88947232  0.36837156  1
  N  N69  1  0.78004586  0.76022000  0.11821966  1
  N  N70  1  0.58137634  0.86304321  0.87740395  1
  N  N71  1  0.47019708  0.74818852  0.60854016  1
