# generated using pymatgen
data_Sc5Al13N18
_symmetry_space_group_name_H-M   'P 1'
_cell_length_a   9.95833135
_cell_length_b   9.93659608
_cell_length_c   9.98928745
_cell_angle_alpha   89.70879027
_cell_angle_beta   89.87735952
_cell_angle_gamma   60.11195784
_symmetry_Int_Tables_number   1
_chemical_formula_structural   Sc5Al13N18
_chemical_formula_sum   'Sc10 Al26 N36'
_cell_volume   856.98367097
_cell_formula_units_Z   2
loop_
 _symmetry_equiv_pos_site_id
 _symmetry_equiv_pos_as_xyz
  1  'x, y, z'
loop_
 _atom_site_type_symbol
 _atom_site_label
 _atom_site_symmetry_multiplicity
 _atom_site_fract_x
 _atom_site_fract_y
 _atom_site_fract_z
 _atom_site_occupancy
  Sc  Sc0  1  0.09433562  0.10749729  0.37182717  1
  Sc  Sc1  1  0.45241327  0.09600434  0.36100754  1
  Sc  Sc2  1  0.10042668  0.10451048  0.87168725  1
  Sc  Sc3  1  0.22453816  0.21386957  0.62180906  1
  Sc  Sc4  1  0.44805782  0.10064451  0.87709009  1
  Sc  Sc5  1  0.88458645  0.54105885  0.60968163  1
  Sc  Sc6  1  0.10525784  0.75346559  0.35731266  1
  Sc  Sc7  1  0.45362149  0.75063735  0.34579723  1
  Sc  Sc8  1  0.21764433  0.86738653  0.60778752  1
  Sc  Sc9  1  0.45791098  0.75193102  0.84691083  1
  Al  Al10  1  0.21857541  0.21157553  0.13487632  1
  Al  Al11  1  0.77907064  0.09035181  0.82443939  1
  Al  Al12  1  0.87380186  0.21408284  0.63570501  1
  Al  Al13  1  0.55300987  0.21374433  0.12900311  1
  Al  Al14  1  0.77343031  0.09628876  0.31329942  1
  Al  Al15  1  0.88297297  0.21075783  0.12538764  1
  Al  Al16  1  0.55764948  0.20981368  0.63219125  1
  Al  Al17  1  0.11494916  0.43225881  0.37624848  1
  Al  Al18  1  0.22954425  0.52898313  0.12811593  1
  Al  Al19  1  0.77712779  0.42988464  0.88417382  1
  Al  Al20  1  0.44784635  0.42369389  0.38231886  1
  Al  Al21  1  0.55966331  0.52793741  0.12825947  1
  Al  Al22  1  0.10364677  0.43802612  0.88523520  1
  Al  Al23  1  0.22040486  0.54233409  0.63379415  1
  Al  Al24  1  0.77009296  0.42189069  0.37829959  1
  Al  Al25  1  0.89186917  0.53345686  0.13452499  1
  Al  Al26  1  0.44703291  0.42668848  0.87988385  1
  Al  Al27  1  0.56006069  0.52621517  0.63283507  1
  Al  Al28  1  0.22430673  0.86927140  0.09024901  1
  Al  Al29  1  0.78606406  0.76307586  0.82156899  1
  Al  Al30  1  0.87568368  0.88325747  0.56696503  1
  Al  Al31  1  0.56789764  0.86375373  0.07799212  1
  Al  Al32  1  0.11116943  0.75177266  0.88354064  1
  Al  Al33  1  0.78078142  0.76273334  0.31975927  1
  Al  Al34  1  0.88181444  0.87498466  0.06975354  1
  Al  Al35  1  0.56969057  0.86786572  0.57229813  1
  N  N36  1  0.21209151  0.22481205  0.32607445  1
  N  N37  1  0.11000975  0.09482506  0.09445900  1
  N  N38  1  0.86737375  0.22043265  0.83185165  1
  N  N39  1  0.77900879  0.09128654  0.62487409  1
  N  N40  1  0.56066655  0.22070710  0.32076931  1
  N  N41  1  0.44461387  0.09508622  0.10267201  1
  N  N42  1  0.21286061  0.22969332  0.83251476  1
  N  N43  1  0.08504592  0.11259270  0.59327889  1
  N  N44  1  0.86635257  0.21899646  0.31537731  1
  N  N45  1  0.77739548  0.09079788  0.11157694  1
  N  N46  1  0.56044989  0.21823368  0.82675604  1
  N  N47  1  0.46456661  0.08863428  0.58813269  1
  N  N48  1  0.24032274  0.51412368  0.31567628  1
  N  N49  1  0.10838268  0.43043795  0.07843089  1
  N  N50  1  0.88962384  0.53721350  0.83216618  1
  N  N51  1  0.76364795  0.41713616  0.56750810  1
  N  N52  1  0.56468404  0.51381828  0.31777780  1
  N  N53  1  0.44446590  0.42773443  0.06998367  1
  N  N54  1  0.22249603  0.53830284  0.82996882  1
  N  N55  1  0.11944154  0.44285017  0.56394451  1
  N  N56  1  0.89107561  0.53379066  0.33588273  1
  N  N57  1  0.77810859  0.43063435  0.07623808  1
  N  N58  1  0.56864320  0.51433671  0.82522051  1
  N  N59  1  0.44043735  0.43083186  0.57664702  1
  N  N60  1  0.22138804  0.87192080  0.37027728  1
  N  N61  1  0.11305936  0.75550471  0.09164919  1
  N  N62  1  0.88977502  0.87181629  0.87837931  1
  N  N63  1  0.77188932  0.78312250  0.63214990  1
  N  N64  1  0.58166664  0.85511632  0.38029917  1
  N  N65  1  0.44703586  0.75765413  0.10478864  1
  N  N66  1  0.21462576  0.86176504  0.85220393  1
  N  N67  1  0.09575775  0.75099382  0.58068360  1
  N  N68  1  0.86103812  0.89081400  0.37327054  1
  N  N69  1  0.78292749  0.75983727  0.12859307  1
  N  N70  1  0.58528957  0.86019572  0.88904541  1
  N  N71  1  0.46915572  0.74908687  0.61305233  1
