# generated using pymatgen
data_Sc5Al13N18
_symmetry_space_group_name_H-M   'P 1'
_cell_length_a   9.95235083
_cell_length_b   9.92149757
_cell_length_c   10.01536345
_cell_angle_alpha   89.63155580
_cell_angle_beta   89.85661679
_cell_angle_gamma   60.05549340
_symmetry_Int_Tables_number   1
_chemical_formula_structural   Sc5Al13N18
_chemical_formula_sum   'Sc10 Al26 N36'
_cell_volume   856.90703777
_cell_formula_units_Z   2
loop_
 _symmetry_equiv_pos_site_id
 _symmetry_equiv_pos_as_xyz
  1  'x, y, z'
loop_
 _atom_site_type_symbol
 _atom_site_label
 _atom_site_symmetry_multiplicity
 _atom_site_fract_x
 _atom_site_fract_y
 _atom_site_fract_z
 _atom_site_occupancy
  Sc  Sc0  1  0.09909900  0.09803011  0.34133663  1
  Sc  Sc1  1  0.45628585  0.09660259  0.33815459  1
  Sc  Sc2  1  0.10225779  0.10502006  0.85896803  1
  Sc  Sc3  1  0.21942440  0.21606246  0.60763928  1
  Sc  Sc4  1  0.45529042  0.09241052  0.83057329  1
  Sc  Sc5  1  0.88197159  0.54147918  0.61232492  1
  Sc  Sc6  1  0.10513525  0.75685321  0.33919852  1
  Sc  Sc7  1  0.45070836  0.75717105  0.33088771  1
  Sc  Sc8  1  0.22465188  0.86777169  0.59973731  1
  Sc  Sc9  1  0.45940607  0.74903187  0.84868063  1
  Al  Al10  1  0.22105654  0.21171625  0.12993352  1
  Al  Al11  1  0.77509457  0.09331559  0.82973221  1
  Al  Al12  1  0.87178061  0.21236923  0.62765550  1
  Al  Al13  1  0.55958001  0.20274352  0.06794609  1
  Al  Al14  1  0.77054545  0.09838295  0.31297207  1
  Al  Al15  1  0.88030259  0.20960599  0.11034116  1
  Al  Al16  1  0.56577931  0.20573884  0.57231193  1
  Al  Al17  1  0.11211666  0.43505867  0.37544172  1
  Al  Al18  1  0.22845338  0.53173110  0.12877022  1
  Al  Al19  1  0.77634847  0.43052952  0.88962926  1
  Al  Al20  1  0.44549648  0.43089076  0.38453783  1
  Al  Al21  1  0.55812908  0.52853956  0.12908775  1
  Al  Al22  1  0.10626815  0.43580317  0.88587854  1
  Al  Al23  1  0.22380869  0.53659821  0.63706746  1
  Al  Al24  1  0.77065139  0.42201017  0.37526272  1
  Al  Al25  1  0.89000667  0.53614495  0.13615990  1
  Al  Al26  1  0.44361672  0.42991304  0.88279950  1
  Al  Al27  1  0.55960842  0.52725825  0.63540392  1
  Al  Al28  1  0.21998265  0.86389966  0.06515104  1
  Al  Al29  1  0.78578376  0.76132673  0.82427770  1
  Al  Al30  1  0.87678945  0.88345522  0.57486531  1
  Al  Al31  1  0.56614491  0.86937243  0.07458093  1
  Al  Al32  1  0.10023328  0.75897055  0.82355239  1
  Al  Al33  1  0.78093139  0.76495982  0.32264590  1
  Al  Al34  1  0.88969616  0.86947271  0.06978108  1
  Al  Al35  1  0.56913665  0.86795560  0.57243740  1
  N  N36  1  0.21241728  0.22423381  0.33102552  1
  N  N37  1  0.11392921  0.09200789  0.09841993  1
  N  N38  1  0.86663495  0.21573395  0.86147286  1
  N  N39  1  0.77334461  0.09509185  0.63611609  1
  N  N40  1  0.57209646  0.21435971  0.38176887  1
  N  N41  1  0.44658581  0.09479496  0.11288141  1
  N  N42  1  0.21503276  0.23083903  0.82531644  1
  N  N43  1  0.08326524  0.11042634  0.61067113  1
  N  N44  1  0.86670369  0.21904046  0.31152020  1
  N  N45  1  0.77347245  0.08747675  0.11984545  1
  N  N46  1  0.56652774  0.21052062  0.87811217  1
  N  N47  1  0.46479228  0.08738140  0.60583769  1
  N  N48  1  0.24074672  0.51331197  0.31827165  1
  N  N49  1  0.10830828  0.43064022  0.07945262  1
  N  N50  1  0.89014174  0.53527678  0.83370474  1
  N  N51  1  0.76223217  0.41594692  0.56588585  1
  N  N52  1  0.56255486  0.51818627  0.31853083  1
  N  N53  1  0.44223268  0.43127383  0.07513123  1
  N  N54  1  0.22425191  0.53444257  0.83164436  1
  N  N55  1  0.11502335  0.44948223  0.56196158  1
  N  N56  1  0.88966632  0.53561239  0.33625146  1
  N  N57  1  0.77477129  0.43603209  0.08012429  1
  N  N58  1  0.57047473  0.51021363  0.82599735  1
  N  N59  1  0.43671156  0.43788326  0.58039570  1
  N  N60  1  0.22464550  0.86604467  0.38904289  1
  N  N61  1  0.10828646  0.76142644  0.11905843  1
  N  N62  1  0.88949868  0.87122059  0.87980148  1
  N  N63  1  0.77136809  0.78311282  0.63458196  1
  N  N64  1  0.57962181  0.85855236  0.38304517  1
  N  N65  1  0.44453064  0.75994932  0.10331186  1
  N  N66  1  0.21438902  0.85778880  0.86801973  1
  N  N67  1  0.09143504  0.75862809  0.62590026  1
  N  N68  1  0.86550644  0.88955328  0.38306927  1
  N  N69  1  0.78184334  0.76264436  0.13100933  1
  N  N70  1  0.58494554  0.85943388  0.88961269  1
  N  N71  1  0.47272434  0.74999730  0.62347573  1
