# generated using pymatgen
data_Sc5Al13N18
_symmetry_space_group_name_H-M   'P 1'
_cell_length_a   9.93061709
_cell_length_b   9.91794384
_cell_length_c   10.05829450
_cell_angle_alpha   89.50386015
_cell_angle_beta   89.54525933
_cell_angle_gamma   60.13953179
_symmetry_Int_Tables_number   1
_chemical_formula_structural   Sc5Al13N18
_chemical_formula_sum   'Sc10 Al26 N36'
_cell_volume   859.09598913
_cell_formula_units_Z   2
loop_
 _symmetry_equiv_pos_site_id
 _symmetry_equiv_pos_as_xyz
  1  'x, y, z'
loop_
 _atom_site_type_symbol
 _atom_site_label
 _atom_site_symmetry_multiplicity
 _atom_site_fract_x
 _atom_site_fract_y
 _atom_site_fract_z
 _atom_site_occupancy
  Sc  Sc0  1  0.09368653  0.10560399  0.37018276  1
  Sc  Sc1  1  0.45486633  0.09597667  0.33555859  1
  Sc  Sc2  1  0.10189818  0.10476745  0.87305988  1
  Sc  Sc3  1  0.22035792  0.21586035  0.61390517  1
  Sc  Sc4  1  0.45610126  0.09280487  0.83329192  1
  Sc  Sc5  1  0.88227559  0.54175879  0.61235454  1
  Sc  Sc6  1  0.10541793  0.75275078  0.36018726  1
  Sc  Sc7  1  0.45510029  0.75270724  0.34080497  1
  Sc  Sc8  1  0.21924174  0.86693587  0.60787203  1
  Sc  Sc9  1  0.45862126  0.75057016  0.84726116  1
  Al  Al10  1  0.21854037  0.21204285  0.13346102  1
  Al  Al11  1  0.77761739  0.09088497  0.82261857  1
  Al  Al12  1  0.87340300  0.21423653  0.63673070  1
  Al  Al13  1  0.56073977  0.20355024  0.06681535  1
  Al  Al14  1  0.76809175  0.09937501  0.31439581  1
  Al  Al15  1  0.88192510  0.21154356  0.12827870  1
  Al  Al16  1  0.56609771  0.20467230  0.57123493  1
  Al  Al17  1  0.11243789  0.43359325  0.37637865  1
  Al  Al18  1  0.22993620  0.52834313  0.12968665  1
  Al  Al19  1  0.77770220  0.42826852  0.88502409  1
  Al  Al20  1  0.44419315  0.43017326  0.38491515  1
  Al  Al21  1  0.55886820  0.52745965  0.12912554  1
  Al  Al22  1  0.10526750  0.43567384  0.88539778  1
  Al  Al23  1  0.21897783  0.54350477  0.63609245  1
  Al  Al24  1  0.76927345  0.42200549  0.37948200  1
  Al  Al25  1  0.89027095  0.53428723  0.13477226  1
  Al  Al26  1  0.44503862  0.42936396  0.88123057  1
  Al  Al27  1  0.55872894  0.52699822  0.63477914  1
  Al  Al28  1  0.22428083  0.86912721  0.09102624  1
  Al  Al29  1  0.78784567  0.76203782  0.82281911  1
  Al  Al30  1  0.87595515  0.88297284  0.56838194  1
  Al  Al31  1  0.56554405  0.86875687  0.07352657  1
  Al  Al32  1  0.11108760  0.75219124  0.88597768  1
  Al  Al33  1  0.77968935  0.76423278  0.32039575  1
  Al  Al34  1  0.88175736  0.87467931  0.07212762  1
  Al  Al35  1  0.56888779  0.86926637  0.57283327  1
  N  N36  1  0.21157965  0.22495922  0.32757952  1
  N  N37  1  0.10954333  0.09522336  0.09510780  1
  N  N38  1  0.86913693  0.21938337  0.83048107  1
  N  N39  1  0.77518425  0.09232043  0.63050555  1
  N  N40  1  0.56894960  0.21449219  0.38135287  1
  N  N41  1  0.44640413  0.09465074  0.11087622  1
  N  N42  1  0.21373983  0.22955447  0.82695997  1
  N  N43  1  0.08334404  0.11155696  0.58929380  1
  N  N44  1  0.86514090  0.21988527  0.31554121  1
  N  N45  1  0.77408820  0.09093007  0.12072999  1
  N  N46  1  0.57029533  0.20984639  0.87770662  1
  N  N47  1  0.46508749  0.08701625  0.60945861  1
  N  N48  1  0.24011500  0.51311002  0.31564828  1
  N  N49  1  0.10820693  0.42989062  0.07806807  1
  N  N50  1  0.89025875  0.53635991  0.83297028  1
  N  N51  1  0.76222550  0.41681491  0.56727554  1
  N  N52  1  0.56402433  0.51451564  0.31720777  1
  N  N53  1  0.44248524  0.43103657  0.07310510  1
  N  N54  1  0.22192716  0.53854542  0.83094423  1
  N  N55  1  0.11626130  0.44663079  0.56265487  1
  N  N56  1  0.88908797  0.53478894  0.33473387  1
  N  N57  1  0.77758527  0.43000405  0.07585413  1
  N  N58  1  0.56956006  0.51233483  0.82522220  1
  N  N59  1  0.43588072  0.43731943  0.58065324  1
  N  N60  1  0.22371312  0.86962412  0.37027147  1
  N  N61  1  0.11247449  0.75571347  0.09257253  1
  N  N62  1  0.88950922  0.87271101  0.88132113  1
  N  N63  1  0.77183485  0.78329420  0.63416264  1
  N  N64  1  0.57986593  0.86017099  0.38437325  1
  N  N65  1  0.44713642  0.75893685  0.10548568  1
  N  N66  1  0.21492644  0.86200870  0.85314465  1
  N  N67  1  0.09527281  0.75241404  0.58202890  1
  N  N68  1  0.86134054  0.89119434  0.37517555  1
  N  N69  1  0.78038163  0.76146056  0.12995288  1
  N  N70  1  0.58574456  0.85939022  0.88875072  1
  N  N71  1  0.47024907  0.74969197  0.61698790  1
