# generated using pymatgen
data_Sc5Al13N18
_symmetry_space_group_name_H-M   'P 1'
_cell_length_a   9.87065953
_cell_length_b   9.84453731
_cell_length_c   10.27816682
_cell_angle_alpha   89.24246102
_cell_angle_beta   89.91813227
_cell_angle_gamma   59.99838649
_symmetry_Int_Tables_number   1
_chemical_formula_structural   Sc5Al13N18
_chemical_formula_sum   'Sc10 Al26 N36'
_cell_volume   864.83842406
_cell_formula_units_Z   2
loop_
 _symmetry_equiv_pos_site_id
 _symmetry_equiv_pos_as_xyz
  1  'x, y, z'
loop_
 _atom_site_type_symbol
 _atom_site_label
 _atom_site_symmetry_multiplicity
 _atom_site_fract_x
 _atom_site_fract_y
 _atom_site_fract_z
 _atom_site_occupancy
  Sc  Sc0  1  0.10276950  0.09802892  0.30823740  1
  Sc  Sc1  1  0.44945816  0.10006543  0.32214408  1
  Sc  Sc2  1  0.09807990  0.10375557  0.83394386  1
  Sc  Sc3  1  0.21750650  0.21375810  0.57056622  1
  Sc  Sc4  1  0.45256415  0.09743216  0.82189914  1
  Sc  Sc5  1  0.88256337  0.54823288  0.57505311  1
  Sc  Sc6  1  0.10479385  0.75641531  0.33177561  1
  Sc  Sc7  1  0.45137048  0.75811901  0.32253852  1
  Sc  Sc8  1  0.22346484  0.86991148  0.58547147  1
  Sc  Sc9  1  0.45547408  0.75401136  0.84048911  1
  Al  Al10  1  0.22172658  0.21118317  0.06127021  1
  Al  Al11  1  0.77563879  0.09775242  0.81636835  1
  Al  Al12  1  0.87831385  0.20348727  0.56404206  1
  Al  Al13  1  0.56383316  0.19979583  0.06455584  1
  Al  Al14  1  0.77282045  0.09713521  0.31721892  1
  Al  Al15  1  0.88162499  0.20300239  0.06592926  1
  Al  Al16  1  0.56482779  0.20329093  0.56599212  1
  Al  Al17  1  0.10503885  0.42671298  0.30502273  1
  Al  Al18  1  0.23114181  0.53225210  0.12694900  1
  Al  Al19  1  0.77271655  0.42897842  0.88041034  1
  Al  Al20  1  0.44517423  0.42988657  0.38411405  1
  Al  Al21  1  0.56097165  0.52633645  0.12843973  1
  Al  Al22  1  0.10674955  0.43630901  0.82405677  1
  Al  Al23  1  0.22999775  0.53743604  0.64147970  1
  Al  Al24  1  0.77352697  0.42573669  0.36766521  1
  Al  Al25  1  0.88919405  0.54310969  0.06704303  1
  Al  Al26  1  0.44408623  0.43107213  0.88694503  1
  Al  Al27  1  0.56106688  0.52699174  0.63597174  1
  Al  Al28  1  0.21973793  0.86468403  0.05888483  1
  Al  Al29  1  0.78357245  0.76547652  0.82082666  1
  Al  Al30  1  0.87691999  0.88134388  0.57102115  1
  Al  Al31  1  0.56409497  0.87076288  0.06743659  1
  Al  Al32  1  0.10026254  0.76242809  0.82056357  1
  Al  Al33  1  0.78126708  0.76054492  0.31426386  1
  Al  Al34  1  0.89005413  0.87201337  0.06595445  1
  Al  Al35  1  0.56660933  0.87083045  0.56879931  1
  N  N36  1  0.20985924  0.22156606  0.36603974  1
  N  N37  1  0.11036592  0.09217291  0.09561961  1
  N  N38  1  0.86606312  0.21120335  0.88166944  1
  N  N39  1  0.77567122  0.09634976  0.62941841  1
  N  N40  1  0.56931063  0.21102719  0.38037613  1
  N  N41  1  0.44590577  0.09502124  0.10938792  1
  N  N42  1  0.21601189  0.22646601  0.87738871  1
  N  N43  1  0.08568380  0.10898017  0.62580290  1
  N  N44  1  0.87455057  0.20507341  0.37339907  1
  N  N45  1  0.77833907  0.09075460  0.12841830  1
  N  N46  1  0.56970028  0.20918685  0.87894592  1
  N  N47  1  0.46096937  0.08963181  0.61063432  1
  N  N48  1  0.24068843  0.51144845  0.31750189  1
  N  N49  1  0.10702038  0.42774209  0.11568759  1
  N  N50  1  0.88806818  0.54420822  0.87283298  1
  N  N51  1  0.76438491  0.42171365  0.57503879  1
  N  N52  1  0.56461977  0.51533127  0.31419626  1
  N  N53  1  0.44461068  0.42920872  0.07389040  1
  N  N54  1  0.22955347  0.53870586  0.83432866  1
  N  N55  1  0.11286505  0.43841808  0.63743026  1
  N  N56  1  0.89061959  0.53914598  0.36011720  1
  N  N57  1  0.77697319  0.42912372  0.08267664  1
  N  N58  1  0.56726076  0.51266588  0.82299206  1
  N  N59  1  0.43770142  0.43756594  0.57520476  1
  N  N60  1  0.22265312  0.87109264  0.38106776  1
  N  N61  1  0.10860590  0.76164876  0.11763032  1
  N  N62  1  0.88809377  0.87585048  0.87833833  1
  N  N63  1  0.77004599  0.78269264  0.63715333  1
  N  N64  1  0.57847113  0.86118330  0.38211827  1
  N  N65  1  0.44536386  0.76009822  0.10208839  1
  N  N66  1  0.21318966  0.85959868  0.87105617  1
  N  N67  1  0.09237002  0.75888745  0.62591875  1
  N  N68  1  0.86638597  0.88396374  0.38243669  1
  N  N69  1  0.78185269  0.76144081  0.12631297  1
  N  N70  1  0.58123365  0.86466080  0.88674041  1
  N  N71  1  0.46866300  0.75348028  0.62332493  1
