# generated using pymatgen
data_Sc5Al13N18
_symmetry_space_group_name_H-M   'P 1'
_cell_length_a   9.85886373
_cell_length_b   9.81599546
_cell_length_c   10.36414624
_cell_angle_alpha   89.13132744
_cell_angle_beta   89.86153103
_cell_angle_gamma   59.85798228
_symmetry_Int_Tables_number   1
_chemical_formula_structural   Sc5Al13N18
_chemical_formula_sum   'Sc10 Al26 N36'
_cell_volume   867.25005362
_cell_formula_units_Z   2
loop_
 _symmetry_equiv_pos_site_id
 _symmetry_equiv_pos_as_xyz
  1  'x, y, z'
loop_
 _atom_site_type_symbol
 _atom_site_label
 _atom_site_symmetry_multiplicity
 _atom_site_fract_x
 _atom_site_fract_y
 _atom_site_fract_z
 _atom_site_occupancy
  Sc  Sc0  1  0.10212568  0.09854279  0.30320915  1
  Sc  Sc1  1  0.45196458  0.09897430  0.31556602  1
  Sc  Sc2  1  0.09698087  0.10510037  0.82866412  1
  Sc  Sc3  1  0.22171426  0.20878521  0.56574771  1
  Sc  Sc4  1  0.45323046  0.09676748  0.81716119  1
  Sc  Sc5  1  0.88450152  0.53858872  0.61896675  1
  Sc  Sc6  1  0.10498809  0.75760008  0.32491099  1
  Sc  Sc7  1  0.45110192  0.75861469  0.31645588  1
  Sc  Sc8  1  0.22311032  0.87061431  0.58060305  1
  Sc  Sc9  1  0.45578270  0.75337180  0.83523220  1
  Al  Al10  1  0.22476425  0.20543586  0.05825341  1
  Al  Al11  1  0.77596320  0.09870738  0.81268941  1
  Al  Al12  1  0.87779246  0.20237641  0.55843790  1
  Al  Al13  1  0.56353148  0.20015096  0.05900646  1
  Al  Al14  1  0.77280209  0.09759255  0.31339339  1
  Al  Al15  1  0.88190291  0.20159249  0.06140371  1
  Al  Al16  1  0.56446912  0.20404805  0.56223838  1
  Al  Al17  1  0.10992465  0.43311769  0.36173816  1
  Al  Al18  1  0.22981976  0.52999815  0.12492194  1
  Al  Al19  1  0.77394224  0.43288960  0.88509317  1
  Al  Al20  1  0.44585384  0.43030421  0.38084443  1
  Al  Al21  1  0.56002717  0.52613241  0.12477537  1
  Al  Al22  1  0.10341720  0.44362851  0.88451072  1
  Al  Al23  1  0.22511244  0.53588455  0.63393629  1
  Al  Al24  1  0.77005401  0.42722802  0.37556864  1
  Al  Al25  1  0.88818213  0.53592574  0.12982504  1
  Al  Al26  1  0.44467784  0.43073848  0.88042589  1
  Al  Al27  1  0.56045501  0.52728920  0.63156355  1
  Al  Al28  1  0.21977442  0.86410286  0.05431922  1
  Al  Al29  1  0.78277603  0.76734904  0.81716410  1
  Al  Al30  1  0.87846842  0.88060138  0.56768921  1
  Al  Al31  1  0.56489382  0.86957172  0.06295329  1
  Al  Al32  1  0.10041438  0.76244716  0.81494335  1
  Al  Al33  1  0.77891714  0.76480769  0.31432028  1
  Al  Al34  1  0.88943417  0.87112431  0.06235484  1
  Al  Al35  1  0.56754885  0.87034408  0.56509011  1
  N  N36  1  0.21496968  0.21507379  0.35970710  1
  N  N37  1  0.11001905  0.09226833  0.09276000  1
  N  N38  1  0.86568790  0.21179954  0.87971377  1
  N  N39  1  0.77528716  0.09750077  0.62683442  1
  N  N40  1  0.56956943  0.21063612  0.37807717  1
  N  N41  1  0.44669547  0.09448037  0.10523899  1
  N  N42  1  0.21781357  0.22355246  0.87194501  1
  N  N43  1  0.08319845  0.11214254  0.62267679  1
  N  N44  1  0.87500988  0.20357742  0.37016974  1
  N  N45  1  0.77748567  0.09144756  0.12551800  1
  N  N46  1  0.57009898  0.20823292  0.87543074  1
  N  N47  1  0.46265565  0.08969121  0.60880619  1
  N  N48  1  0.24208825  0.51005251  0.30918192  1
  N  N49  1  0.10629735  0.43480205  0.07735227  1
  N  N50  1  0.88893411  0.53726458  0.83128782  1
  N  N51  1  0.76034669  0.42526715  0.56010640  1
  N  N52  1  0.56524980  0.51440845  0.30861886  1
  N  N53  1  0.44304866  0.43113005  0.06670630  1
  N  N54  1  0.22629815  0.53343966  0.82391143  1
  N  N55  1  0.11461950  0.44942675  0.56080467  1
  N  N56  1  0.88899909  0.53234575  0.32149769  1
  N  N57  1  0.77570314  0.43292230  0.07328598  1
  N  N58  1  0.57038092  0.51046768  0.81697561  1
  N  N59  1  0.43705151  0.43971129  0.57070772  1
  N  N60  1  0.22294798  0.87032131  0.37781050  1
  N  N61  1  0.10824717  0.76206699  0.11425790  1
  N  N62  1  0.88859736  0.87459983  0.87595762  1
  N  N63  1  0.76975021  0.78506684  0.63301213  1
  N  N64  1  0.57764106  0.86044976  0.38100336  1
  N  N65  1  0.44488435  0.76059795  0.09918003  1
  N  N66  1  0.21325638  0.85878496  0.86872551  1
  N  N67  1  0.09243648  0.76154517  0.62593619  1
  N  N68  1  0.86783285  0.88320957  0.38064194  1
  N  N69  1  0.77830949  0.76689634  0.12675641  1
  N  N70  1  0.58197072  0.86302729  0.88414811  1
  N  N71  1  0.46811134  0.75507247  0.62171650  1
