# generated using pymatgen
data_Sc5Al13N18
_symmetry_space_group_name_H-M   'P 1'
_cell_length_a   9.88442812
_cell_length_b   9.83847561
_cell_length_c   10.26395522
_cell_angle_alpha   89.48742700
_cell_angle_beta   90.05491979
_cell_angle_gamma   59.99924254
_symmetry_Int_Tables_number   1
_chemical_formula_structural   Sc5Al13N18
_chemical_formula_sum   'Sc10 Al26 N36'
_cell_volume   864.36167949
_cell_formula_units_Z   2
loop_
 _symmetry_equiv_pos_site_id
 _symmetry_equiv_pos_as_xyz
  1  'x, y, z'
loop_
 _atom_site_type_symbol
 _atom_site_label
 _atom_site_symmetry_multiplicity
 _atom_site_fract_x
 _atom_site_fract_y
 _atom_site_fract_z
 _atom_site_occupancy
  Sc  Sc0  1  0.09908549  0.09585503  0.31966268  1
  Sc  Sc1  1  0.45579737  0.09464025  0.33441748  1
  Sc  Sc2  1  0.09794001  0.10489651  0.83466656  1
  Sc  Sc3  1  0.21932050  0.21352111  0.59676625  1
  Sc  Sc4  1  0.45736891  0.09287519  0.82027580  1
  Sc  Sc5  1  0.88407385  0.54011590  0.62344762  1
  Sc  Sc6  1  0.10305771  0.75768043  0.33151825  1
  Sc  Sc7  1  0.44967669  0.75793107  0.32141213  1
  Sc  Sc8  1  0.22374385  0.86778847  0.58917737  1
  Sc  Sc9  1  0.45615860  0.75201947  0.84485154  1
  Al  Al10  1  0.22306078  0.20992918  0.11887553  1
  Al  Al11  1  0.77606775  0.09894954  0.81997240  1
  Al  Al12  1  0.87442412  0.20436898  0.56416688  1
  Al  Al13  1  0.56225764  0.20108917  0.06685169  1
  Al  Al14  1  0.77141349  0.09876376  0.31786679  1
  Al  Al15  1  0.88247398  0.20301833  0.06918027  1
  Al  Al16  1  0.56461101  0.20646500  0.56701920  1
  Al  Al17  1  0.11078107  0.43538543  0.37683675  1
  Al  Al18  1  0.22956883  0.53026516  0.12926415  1
  Al  Al19  1  0.77511132  0.43243940  0.88991646  1
  Al  Al20  1  0.44472638  0.43223029  0.38416323  1
  Al  Al21  1  0.56059909  0.52604483  0.12866062  1
  Al  Al22  1  0.10883095  0.43425332  0.88561587  1
  Al  Al23  1  0.22397896  0.53700117  0.63755724  1
  Al  Al24  1  0.76942632  0.42958250  0.38007710  1
  Al  Al25  1  0.89125459  0.53456830  0.13518091  1
  Al  Al26  1  0.44382134  0.42972416  0.88462640  1
  Al  Al27  1  0.55986086  0.52819938  0.63774396  1
  Al  Al28  1  0.21929823  0.86510911  0.06070826  1
  Al  Al29  1  0.78399902  0.76529297  0.82488922  1
  Al  Al30  1  0.87642331  0.88223389  0.57391576  1
  Al  Al31  1  0.56553661  0.86992438  0.07082221  1
  Al  Al32  1  0.09995929  0.76097843  0.82138194  1
  Al  Al33  1  0.78033773  0.76319068  0.31999709  1
  Al  Al34  1  0.88940548  0.87175293  0.06805919  1
  Al  Al35  1  0.56879876  0.86642591  0.57062024  1
  N  N36  1  0.21226384  0.22113553  0.34058378  1
  N  N37  1  0.11106040  0.09389217  0.10232523  1
  N  N38  1  0.86698773  0.21197505  0.88553232  1
  N  N39  1  0.77352476  0.09893129  0.63275026  1
  N  N40  1  0.56935938  0.21403643  0.38151368  1
  N  N41  1  0.44782210  0.09424715  0.11588844  1
  N  N42  1  0.21635456  0.22918183  0.82349376  1
  N  N43  1  0.08128009  0.10930483  0.62153522  1
  N  N44  1  0.87021862  0.20744207  0.37477175  1
  N  N45  1  0.77776475  0.09195184  0.12982194  1
  N  N46  1  0.56977740  0.20791292  0.88124742  1
  N  N47  1  0.46515485  0.08763679  0.60420059  1
  N  N48  1  0.24025194  0.51220038  0.31475840  1
  N  N49  1  0.11020235  0.42967190  0.07575539  1
  N  N50  1  0.89014699  0.53647209  0.83665177  1
  N  N51  1  0.75974653  0.42672680  0.56696759  1
  N  N52  1  0.56504618  0.51553786  0.31384267  1
  N  N53  1  0.44233959  0.43135587  0.07268701  1
  N  N54  1  0.22564159  0.53351396  0.82832953  1
  N  N55  1  0.11391899  0.45167453  0.55938234  1
  N  N56  1  0.89139195  0.53272084  0.32843535  1
  N  N57  1  0.77686803  0.43320748  0.08011780  1
  N  N58  1  0.57051512  0.50965784  0.82432145  1
  N  N59  1  0.43607875  0.44064823  0.57615014  1
  N  N60  1  0.22383686  0.86669633  0.38504826  1
  N  N61  1  0.10810100  0.76203622  0.11880824  1
  N  N62  1  0.88838931  0.87510566  0.88097383  1
  N  N63  1  0.76956966  0.78478614  0.63896994  1
  N  N64  1  0.58039430  0.85399412  0.38589481  1
  N  N65  1  0.44480949  0.76037299  0.10293002  1
  N  N66  1  0.21273633  0.85903183  0.87327924  1
  N  N67  1  0.09034852  0.76090075  0.63001673  1
  N  N68  1  0.86524832  0.88592991  0.38557290  1
  N  N69  1  0.78085926  0.76505800  0.13147027  1
  N  N70  1  0.58311102  0.86156035  0.89087641  1
  N  N71  1  0.46832923  0.75443533  0.62887417  1
