# generated using pymatgen
data_Sc5Al13N18
_symmetry_space_group_name_H-M   'P 1'
_cell_length_a   9.93816923
_cell_length_b   9.90834284
_cell_length_c   10.05638682
_cell_angle_alpha   89.60502041
_cell_angle_beta   89.78460076
_cell_angle_gamma   60.07138215
_symmetry_Int_Tables_number   1
_chemical_formula_structural   Sc5Al13N18
_chemical_formula_sum   'Sc10 Al26 N36'
_cell_volume   858.18634916
_cell_formula_units_Z   2
loop_
 _symmetry_equiv_pos_site_id
 _symmetry_equiv_pos_as_xyz
  1  'x, y, z'
loop_
 _atom_site_type_symbol
 _atom_site_label
 _atom_site_symmetry_multiplicity
 _atom_site_fract_x
 _atom_site_fract_y
 _atom_site_fract_z
 _atom_site_occupancy
  Sc  Sc0  1  0.09573181  0.10188716  0.36266015  1
  Sc  Sc1  1  0.45566009  0.09653291  0.33792796  1
  Sc  Sc2  1  0.10231137  0.10602293  0.86683473  1
  Sc  Sc3  1  0.21954717  0.21697329  0.61013770  1
  Sc  Sc4  1  0.45615835  0.09256612  0.82999160  1
  Sc  Sc5  1  0.88194903  0.54163735  0.61243896  1
  Sc  Sc6  1  0.10546768  0.75692180  0.33809901  1
  Sc  Sc7  1  0.45073817  0.75725645  0.32931835  1
  Sc  Sc8  1  0.22509181  0.86731241  0.60040208  1
  Sc  Sc9  1  0.45901599  0.74978020  0.84849471  1
  Al  Al10  1  0.21934773  0.21068463  0.13266626  1
  Al  Al11  1  0.77481064  0.09247302  0.82653415  1
  Al  Al12  1  0.87213141  0.21441061  0.63946919  1
  Al  Al13  1  0.56011428  0.20252208  0.06831264  1
  Al  Al14  1  0.77049586  0.09758108  0.31378559  1
  Al  Al15  1  0.88258115  0.21001934  0.12366141  1
  Al  Al16  1  0.56694243  0.20516634  0.57082146  1
  Al  Al17  1  0.11212125  0.43463486  0.37545591  1
  Al  Al18  1  0.22836945  0.53100856  0.12905760  1
  Al  Al19  1  0.77701450  0.42933411  0.88685874  1
  Al  Al20  1  0.44541949  0.43114316  0.38432404  1
  Al  Al21  1  0.55890727  0.52733158  0.12834508  1
  Al  Al22  1  0.10625426  0.43578391  0.88623308  1
  Al  Al23  1  0.22400471  0.53661473  0.63678781  1
  Al  Al24  1  0.76976402  0.42191469  0.37868274  1
  Al  Al25  1  0.89017750  0.53499920  0.13559696  1
  Al  Al26  1  0.44341171  0.43008320  0.88343672  1
  Al  Al27  1  0.55955576  0.52739518  0.63598135  1
  Al  Al28  1  0.21936612  0.86398538  0.06595311  1
  Al  Al29  1  0.78581435  0.76151737  0.82362244  1
  Al  Al30  1  0.87660545  0.88364629  0.57393553  1
  Al  Al31  1  0.56598446  0.86973184  0.07412034  1
  Al  Al32  1  0.10013387  0.75897002  0.82298753  1
  Al  Al33  1  0.78090747  0.76422697  0.32205844  1
  Al  Al34  1  0.88988561  0.86961572  0.06948703  1
  Al  Al35  1  0.56896268  0.86807533  0.57211765  1
  N  N36  1  0.21178230  0.22389443  0.32976490  1
  N  N37  1  0.11093871  0.09363642  0.09430984  1
  N  N38  1  0.86767944  0.21910013  0.83614770  1
  N  N39  1  0.77331778  0.09386202  0.63420353  1
  N  N40  1  0.57169320  0.21439883  0.38096048  1
  N  N41  1  0.44633271  0.09458658  0.11346423  1
  N  N42  1  0.21475729  0.23023815  0.82480845  1
  N  N43  1  0.08290041  0.11177058  0.59640634  1
  N  N44  1  0.86641891  0.21934303  0.31310347  1
  N  N45  1  0.77505109  0.08830899  0.11984588  1
  N  N46  1  0.56787151  0.21025326  0.87931178  1
  N  N47  1  0.46473982  0.08770202  0.60581435  1
  N  N48  1  0.24075541  0.51302783  0.31783370  1
  N  N49  1  0.10837350  0.42984682  0.07913415  1
  N  N50  1  0.89036391  0.53564774  0.83334769  1
  N  N51  1  0.76224732  0.41605602  0.56722848  1
  N  N52  1  0.56342700  0.51758462  0.31739322  1
  N  N53  1  0.44192677  0.43116566  0.07497280  1
  N  N54  1  0.22451071  0.53398871  0.83110005  1
  N  N55  1  0.11521831  0.44966818  0.56117480  1
  N  N56  1  0.88941988  0.53465295  0.33541684  1
  N  N57  1  0.77687858  0.43145477  0.07695360  1
  N  N58  1  0.56947179  0.51102753  0.82645304  1
  N  N59  1  0.43691699  0.43800302  0.57958110  1
  N  N60  1  0.22541361  0.86519049  0.38903960  1
  N  N61  1  0.10836646  0.76081385  0.11886767  1
  N  N62  1  0.88951533  0.87156680  0.88004186  1
  N  N63  1  0.77117541  0.78321174  0.63458026  1
  N  N64  1  0.57962985  0.85831336  0.38344182  1
  N  N65  1  0.44459027  0.75969074  0.10288830  1
  N  N66  1  0.21346292  0.85900079  0.86764995  1
  N  N67  1  0.09122360  0.75868885  0.62645049  1
  N  N68  1  0.86585818  0.88872477  0.38250322  1
  N  N69  1  0.78170198  0.76220895  0.13091487  1
  N  N70  1  0.58500211  0.86000980  0.88978122  1
  N  N71  1  0.47259714  0.75035782  0.62450452  1
