# generated using pymatgen
data_Sc5Al13N18
_symmetry_space_group_name_H-M   'P 1'
_cell_length_a   9.95534623
_cell_length_b   9.93089263
_cell_length_c   10.01224399
_cell_angle_alpha   89.72394832
_cell_angle_beta   89.88939406
_cell_angle_gamma   60.09704689
_symmetry_Int_Tables_number   1
_chemical_formula_structural   Sc5Al13N18
_chemical_formula_sum   'Sc10 Al26 N36'
_cell_volume   858.07544968
_cell_formula_units_Z   2
loop_
 _symmetry_equiv_pos_site_id
 _symmetry_equiv_pos_as_xyz
  1  'x, y, z'
loop_
 _atom_site_type_symbol
 _atom_site_label
 _atom_site_symmetry_multiplicity
 _atom_site_fract_x
 _atom_site_fract_y
 _atom_site_fract_z
 _atom_site_occupancy
  Sc  Sc0  1  0.09457151  0.10736999  0.37269976  1
  Sc  Sc1  1  0.45274768  0.09572330  0.36134803  1
  Sc  Sc2  1  0.09947675  0.10640182  0.86995350  1
  Sc  Sc3  1  0.22510475  0.21398823  0.62202178  1
  Sc  Sc4  1  0.44811240  0.10086106  0.87792469  1
  Sc  Sc5  1  0.88466261  0.54085399  0.60995064  1
  Sc  Sc6  1  0.10567677  0.75435478  0.35708089  1
  Sc  Sc7  1  0.45157762  0.75287815  0.33880771  1
  Sc  Sc8  1  0.21884574  0.86690555  0.60482067  1
  Sc  Sc9  1  0.45941170  0.75168666  0.84496531  1
  Al  Al10  1  0.21842204  0.21100351  0.13495060  1
  Al  Al11  1  0.77875621  0.09039515  0.82389543  1
  Al  Al12  1  0.87324771  0.21447282  0.63573231  1
  Al  Al13  1  0.55297695  0.21366813  0.12953109  1
  Al  Al14  1  0.77349805  0.09628326  0.31324665  1
  Al  Al15  1  0.88387236  0.21009696  0.12562566  1
  Al  Al16  1  0.55744876  0.20985420  0.63212376  1
  Al  Al17  1  0.11497835  0.43224990  0.37626072  1
  Al  Al18  1  0.22920521  0.52917860  0.12854501  1
  Al  Al19  1  0.77697305  0.42985670  0.88453263  1
  Al  Al20  1  0.44778716  0.42419579  0.38249792  1
  Al  Al21  1  0.55996250  0.52722847  0.12772848  1
  Al  Al22  1  0.10367047  0.43806702  0.88559596  1
  Al  Al23  1  0.22028068  0.54232056  0.63373283  1
  Al  Al24  1  0.76968109  0.42243811  0.37821518  1
  Al  Al25  1  0.89200317  0.53325796  0.13483420  1
  Al  Al26  1  0.44700705  0.42654817  0.88011392  1
  Al  Al27  1  0.56001082  0.52635668  0.63316178  1
  Al  Al28  1  0.22434193  0.86853545  0.07612226  1
  Al  Al29  1  0.78597828  0.76315127  0.82119205  1
  Al  Al30  1  0.87564466  0.88314774  0.56704611  1
  Al  Al31  1  0.56823105  0.86365554  0.07757091  1
  Al  Al32  1  0.11028941  0.75081369  0.88312265  1
  Al  Al33  1  0.78071503  0.76253891  0.31990928  1
  Al  Al34  1  0.88191496  0.87478515  0.06982896  1
  Al  Al35  1  0.56940415  0.86731784  0.57206934  1
  N  N36  1  0.21226765  0.22446117  0.32591264  1
  N  N37  1  0.11012083  0.09474806  0.09325155  1
  N  N38  1  0.86663395  0.22075289  0.83141212  1
  N  N39  1  0.77884440  0.09131937  0.62491218  1
  N  N40  1  0.56057296  0.22096417  0.32079721  1
  N  N41  1  0.44471826  0.09496143  0.10280282  1
  N  N42  1  0.21335286  0.23008074  0.83222224  1
  N  N43  1  0.08501570  0.11302533  0.59531883  1
  N  N44  1  0.86671414  0.21892424  0.31543359  1
  N  N45  1  0.77747943  0.09064610  0.11209812  1
  N  N46  1  0.56018506  0.21823936  0.82627159  1
  N  N47  1  0.46483175  0.08850059  0.58732501  1
  N  N48  1  0.24011538  0.51460893  0.31584751  1
  N  N49  1  0.10847166  0.43020780  0.07842380  1
  N  N50  1  0.88965543  0.53704622  0.83207371  1
  N  N51  1  0.76326990  0.41742282  0.56707410  1
  N  N52  1  0.56418598  0.51467018  0.31736401  1
  N  N53  1  0.44427689  0.42752015  0.06988454  1
  N  N54  1  0.22260008  0.53801423  0.82961606  1
  N  N55  1  0.11944473  0.44281443  0.56351742  1
  N  N56  1  0.89123702  0.53352430  0.33563741  1
  N  N57  1  0.77834087  0.43028757  0.07617439  1
  N  N58  1  0.56877043  0.51381204  0.82549365  1
  N  N59  1  0.44036074  0.43110670  0.57650732  1
  N  N60  1  0.22229829  0.87169588  0.37968428  1
  N  N61  1  0.11255120  0.75508099  0.09198029  1
  N  N62  1  0.88942859  0.87199454  0.87847495  1
  N  N63  1  0.77169540  0.78310449  0.63222216  1
  N  N64  1  0.58143843  0.85405740  0.38080037  1
  N  N65  1  0.44671953  0.75789169  0.10483182  1
  N  N66  1  0.21552134  0.86141386  0.86190505  1
  N  N67  1  0.09537916  0.75121452  0.58220603  1
  N  N68  1  0.86113241  0.89067584  0.37369361  1
  N  N69  1  0.78284329  0.75984166  0.12904440  1
  N  N70  1  0.58575029  0.86028350  0.88953104  1
  N  N71  1  0.46961086  0.74948613  0.61737986  1
