# generated using pymatgen
data_Sc5Al13N18
_symmetry_space_group_name_H-M   'P 1'
_cell_length_a   9.83844966
_cell_length_b   9.82301423
_cell_length_c   10.14471933
_cell_angle_alpha   90.08740595
_cell_angle_beta   90.06105728
_cell_angle_gamma   60.04770311
_symmetry_Int_Tables_number   1
_chemical_formula_structural   Sc5Al13N18
_chemical_formula_sum   'Sc10 Al26 N36'
_cell_volume   849.47408904
_cell_formula_units_Z   2
loop_
 _symmetry_equiv_pos_site_id
 _symmetry_equiv_pos_as_xyz
  1  'x, y, z'
loop_
 _atom_site_type_symbol
 _atom_site_label
 _atom_site_symmetry_multiplicity
 _atom_site_fract_x
 _atom_site_fract_y
 _atom_site_fract_z
 _atom_site_occupancy
  Sc  Sc0  1  0.10060429  0.09988515  0.29189621  1
  Sc  Sc1  1  0.45035531  0.09578640  0.30485358  1
  Sc  Sc2  1  0.09855152  0.10346669  0.81953188  1
  Sc  Sc3  1  0.21894671  0.21226574  0.55516015  1
  Sc  Sc4  1  0.45389870  0.09558843  0.80664681  1
  Sc  Sc5  1  0.88292094  0.54265568  0.55825778  1
  Sc  Sc6  1  0.10594598  0.75587603  0.30653747  1
  Sc  Sc7  1  0.45257088  0.75216236  0.30107253  1
  Sc  Sc8  1  0.22183112  0.86959424  0.56790027  1
  Sc  Sc9  1  0.45884286  0.74961501  0.81167918  1
  Al  Al10  1  0.22232021  0.21329494  0.04545845  1
  Al  Al11  1  0.77557077  0.09732285  0.80019212  1
  Al  Al12  1  0.87532790  0.20836699  0.55062812  1
  Al  Al13  1  0.55888615  0.20942826  0.04900092  1
  Al  Al14  1  0.77271870  0.09912147  0.30176393  1
  Al  Al15  1  0.87713558  0.21031915  0.04834650  1
  Al  Al16  1  0.56155782  0.20839272  0.54925855  1
  Al  Al17  1  0.10899646  0.43148752  0.29296306  1
  Al  Al18  1  0.22411529  0.53892348  0.04690459  1
  Al  Al19  1  0.77278991  0.42332977  0.80228831  1
  Al  Al20  1  0.44871284  0.42279346  0.30174750  1
  Al  Al21  1  0.55870416  0.53036012  0.04934270  1
  Al  Al22  1  0.10922637  0.43828446  0.80543773  1
  Al  Al23  1  0.22550549  0.53426909  0.55267466  1
  Al  Al24  1  0.77680518  0.42614996  0.29875966  1
  Al  Al25  1  0.88802462  0.53987582  0.04919861  1
  Al  Al26  1  0.44589012  0.42702432  0.80091225  1
  Al  Al27  1  0.55935688  0.52886377  0.54975317  1
  Al  Al28  1  0.22101482  0.86542390  0.03744139  1
  Al  Al29  1  0.78508426  0.76197352  0.80306910  1
  Al  Al30  1  0.87874797  0.87926101  0.55301429  1
  Al  Al31  1  0.56417929  0.87006910  0.04875856  1
  Al  Al32  1  0.10443578  0.75421407  0.79864436  1
  Al  Al33  1  0.78273347  0.75911949  0.29642932  1
  Al  Al34  1  0.88839472  0.87412557  0.04716458  1
  Al  Al35  1  0.56827899  0.86834951  0.54816899  1
  N  N36  1  0.21023969  0.22274632  0.34683732  1
  N  N37  1  0.10931324  0.09428867  0.07540831  1
  N  N38  1  0.86334319  0.21642771  0.86471760  1
  N  N39  1  0.77541490  0.09535323  0.61078399  1
  N  N40  1  0.56518033  0.21536578  0.36168244  1
  N  N41  1  0.44654789  0.09566287  0.08927394  1
  N  N42  1  0.21629908  0.22792229  0.85840723  1
  N  N43  1  0.08538589  0.10960615  0.60792157  1
  N  N44  1  0.86937148  0.21506997  0.36041826  1
  N  N45  1  0.77747930  0.09361745  0.11028063  1
  N  N46  1  0.56564525  0.21653470  0.86232038  1
  N  N47  1  0.46276975  0.08713493  0.59149281  1
  N  N48  1  0.23442376  0.51645856  0.36240554  1
  N  N49  1  0.10993529  0.43281067  0.10247502  1
  N  N50  1  0.88678080  0.53899828  0.85483381  1
  N  N51  1  0.76661386  0.41736172  0.61469797  1
  N  N52  1  0.56579419  0.51819596  0.36055998  1
  N  N53  1  0.44320861  0.42818068  0.11019232  1
  N  N54  1  0.22502420  0.53916519  0.85871531  1
  N  N55  1  0.11542899  0.44128393  0.62031222  1
  N  N56  1  0.89029141  0.53878690  0.34490716  1
  N  N57  1  0.77773164  0.42827485  0.10814514  1
  N  N58  1  0.56480444  0.51654292  0.86434485  1
  N  N59  1  0.44298769  0.42871036  0.61035815  1
  N  N60  1  0.22154759  0.87254087  0.36035358  1
  N  N61  1  0.11023070  0.76067340  0.09525733  1
  N  N62  1  0.88884335  0.87520978  0.85796766  1
  N  N63  1  0.77224156  0.77853278  0.61673996  1
  N  N64  1  0.57830737  0.85870321  0.36032265  1
  N  N65  1  0.44541865  0.75946544  0.08372558  1
  N  N66  1  0.21564083  0.85758001  0.84612555  1
  N  N67  1  0.09672447  0.75101013  0.60597277  1
  N  N68  1  0.86766534  0.88518312  0.36263514  1
  N  N69  1  0.78254180  0.76059998  0.10656727  1
  N  N70  1  0.58097668  0.86263421  0.86612901  1
  N  N71  1  0.47115149  0.74726808  0.59768279  1
