# generated using pymatgen
data_Sc5Al13N18
_symmetry_space_group_name_H-M   'P 1'
_cell_length_a   9.88380076
_cell_length_b   9.83592384
_cell_length_c   10.27116083
_cell_angle_alpha   89.56368954
_cell_angle_beta   90.07429235
_cell_angle_gamma   60.00770161
_symmetry_Int_Tables_number   1
_chemical_formula_structural   Sc5Al13N18
_chemical_formula_sum   'Sc10 Al26 N36'
_cell_volume   864.77448623
_cell_formula_units_Z   2
loop_
 _symmetry_equiv_pos_site_id
 _symmetry_equiv_pos_as_xyz
  1  'x, y, z'
loop_
 _atom_site_type_symbol
 _atom_site_label
 _atom_site_symmetry_multiplicity
 _atom_site_fract_x
 _atom_site_fract_y
 _atom_site_fract_z
 _atom_site_occupancy
  Sc  Sc0  1  0.09800886  0.09531613  0.32120625  1
  Sc  Sc1  1  0.45639461  0.09378757  0.33729973  1
  Sc  Sc2  1  0.09845254  0.10491302  0.83810585  1
  Sc  Sc3  1  0.21877037  0.21465292  0.60468263  1
  Sc  Sc4  1  0.45836137  0.09209671  0.82236148  1
  Sc  Sc5  1  0.88495459  0.53996220  0.62446179  1
  Sc  Sc6  1  0.10284753  0.75779490  0.33302243  1
  Sc  Sc7  1  0.44928009  0.75794926  0.32214969  1
  Sc  Sc8  1  0.22353769  0.86789431  0.59118182  1
  Sc  Sc9  1  0.45617372  0.75163491  0.84687475  1
  Al  Al10  1  0.22230152  0.21224182  0.13025770  1
  Al  Al11  1  0.77633761  0.09865924  0.82156518  1
  Al  Al12  1  0.87412478  0.20474395  0.56611721  1
  Al  Al13  1  0.56203177  0.20094207  0.06881550  1
  Al  Al14  1  0.77111429  0.09891574  0.31928429  1
  Al  Al15  1  0.88266207  0.20301756  0.07067270  1
  Al  Al16  1  0.56440825  0.20669812  0.56841567  1
  Al  Al17  1  0.11128683  0.43463143  0.37642722  1
  Al  Al18  1  0.22952305  0.53078952  0.13034005  1
  Al  Al19  1  0.77530484  0.43230472  0.89119205  1
  Al  Al20  1  0.44473310  0.43245449  0.38544149  1
  Al  Al21  1  0.56077682  0.52596061  0.12987241  1
  Al  Al22  1  0.10963987  0.43351420  0.88749428  1
  Al  Al23  1  0.22405363  0.53669325  0.63828541  1
  Al  Al24  1  0.76928774  0.42999344  0.38162449  1
  Al  Al25  1  0.89135870  0.53475824  0.13608932  1
  Al  Al26  1  0.44403746  0.42943467  0.88604728  1
  Al  Al27  1  0.55985134  0.52841625  0.63936896  1
  Al  Al28  1  0.21885779  0.86579705  0.06234694  1
  Al  Al29  1  0.78431055  0.76471414  0.82654648  1
  Al  Al30  1  0.87608465  0.88233156  0.57540860  1
  Al  Al31  1  0.56528052  0.87063301  0.07259950  1
  Al  Al32  1  0.10003354  0.76060160  0.82274750  1
  Al  Al33  1  0.78032773  0.76292000  0.32129706  1
  Al  Al34  1  0.88934552  0.87192728  0.06959818  1
  Al  Al35  1  0.56871619  0.86574501  0.57224718  1
  N  N36  1  0.21110932  0.22309935  0.32901161  1
  N  N37  1  0.11068007  0.09397552  0.10383610  1
  N  N38  1  0.86724456  0.21177491  0.88693455  1
  N  N39  1  0.77317099  0.09913065  0.63443411  1
  N  N40  1  0.56912703  0.21417100  0.38302941  1
  N  N41  1  0.44856932  0.09399961  0.11817414  1
  N  N42  1  0.21655395  0.23008678  0.82068616  1
  N  N43  1  0.08103276  0.10952378  0.62327719  1
  N  N44  1  0.86967122  0.20774282  0.37688619  1
  N  N45  1  0.77777699  0.09223754  0.13141016  1
  N  N46  1  0.57006026  0.20754168  0.88300337  1
  N  N47  1  0.46477765  0.08751557  0.60448644  1
  N  N48  1  0.24044689  0.51270480  0.31585941  1
  N  N49  1  0.11041682  0.42993527  0.07669705  1
  N  N50  1  0.89084759  0.53582508  0.83776031  1
  N  N51  1  0.75978486  0.42733979  0.56851700  1
  N  N52  1  0.56517328  0.51551201  0.31504689  1
  N  N53  1  0.44234203  0.43150204  0.07388240  1
  N  N54  1  0.22593686  0.53309135  0.82921096  1
  N  N55  1  0.11506384  0.45027616  0.55850521  1
  N  N56  1  0.89137645  0.53270960  0.32948206  1
  N  N57  1  0.77687133  0.43336295  0.08120285  1
  N  N58  1  0.57076462  0.50926650  0.82568808  1
  N  N59  1  0.43621862  0.44075008  0.57737088  1
  N  N60  1  0.22389281  0.86671547  0.38713816  1
  N  N61  1  0.10797015  0.76243045  0.12038319  1
  N  N62  1  0.88849575  0.87488768  0.88252563  1
  N  N63  1  0.76944299  0.78465789  0.64068401  1
  N  N64  1  0.58054505  0.85296879  0.38768768  1
  N  N65  1  0.44468638  0.76043301  0.10419968  1
  N  N66  1  0.21255351  0.85909407  0.87475904  1
  N  N67  1  0.09007674  0.76055071  0.63141147  1
  N  N68  1  0.86482562  0.88613684  0.38714322  1
  N  N69  1  0.78085454  0.76517833  0.13292383  1
  N  N70  1  0.58335198  0.86114998  0.89262798  1
  N  N71  1  0.46796425  0.75455693  0.63114618  1
