# generated using pymatgen
data_Sc5Al13N18
_symmetry_space_group_name_H-M   'P 1'
_cell_length_a   9.92847185
_cell_length_b   9.89213572
_cell_length_c   10.10076746
_cell_angle_alpha   89.60361130
_cell_angle_beta   89.98817237
_cell_angle_gamma   60.05007661
_symmetry_Int_Tables_number   1
_chemical_formula_structural   Sc5Al13N18
_chemical_formula_sum   'Sc10 Al26 N36'
_cell_volume   859.53380483
_cell_formula_units_Z   2
loop_
 _symmetry_equiv_pos_site_id
 _symmetry_equiv_pos_as_xyz
  1  'x, y, z'
loop_
 _atom_site_type_symbol
 _atom_site_label
 _atom_site_symmetry_multiplicity
 _atom_site_fract_x
 _atom_site_fract_y
 _atom_site_fract_z
 _atom_site_occupancy
  Sc  Sc0  1  0.10066743  0.09479999  0.32588744  1
  Sc  Sc1  1  0.45577973  0.09527597  0.33714428  1
  Sc  Sc2  1  0.09735167  0.10612603  0.84231811  1
  Sc  Sc3  1  0.21937436  0.21469714  0.60573931  1
  Sc  Sc4  1  0.45584200  0.09274547  0.82934055  1
  Sc  Sc5  1  0.88345538  0.54034018  0.61801460  1
  Sc  Sc6  1  0.10441575  0.75714617  0.33793406  1
  Sc  Sc7  1  0.45042446  0.75667803  0.32871166  1
  Sc  Sc8  1  0.22398355  0.86839760  0.59658665  1
  Sc  Sc9  1  0.45784004  0.75044229  0.84784880  1
  Al  Al10  1  0.22136574  0.21275136  0.12842541  1
  Al  Al11  1  0.77673698  0.09832682  0.82256639  1
  Al  Al12  1  0.87432119  0.20434721  0.56521684  1
  Al  Al13  1  0.56146888  0.20251813  0.06864368  1
  Al  Al14  1  0.77088936  0.09830134  0.31845311  1
  Al  Al15  1  0.88142152  0.20404173  0.07533208  1
  Al  Al16  1  0.56470167  0.20584560  0.57151355  1
  Al  Al17  1  0.11201669  0.43481832  0.37613552  1
  Al  Al18  1  0.22874764  0.53190489  0.12955696  1
  Al  Al19  1  0.77589820  0.43151434  0.89078989  1
  Al  Al20  1  0.44514407  0.43098030  0.38543448  1
  Al  Al21  1  0.55901732  0.52753120  0.12940900  1
  Al  Al22  1  0.10737366  0.43502387  0.88677612  1
  Al  Al23  1  0.22416649  0.53634830  0.63770883  1
  Al  Al24  1  0.76897886  0.42873834  0.37833156  1
  Al  Al25  1  0.89081838  0.53575933  0.13643341  1
  Al  Al26  1  0.44384799  0.42962141  0.88399818  1
  Al  Al27  1  0.56066871  0.52718311  0.63787738  1
  Al  Al28  1  0.21904834  0.86533071  0.06315478  1
  Al  Al29  1  0.78509474  0.76331041  0.82551282  1
  Al  Al30  1  0.87649476  0.88252155  0.57525290  1
  Al  Al31  1  0.56585974  0.86953355  0.07387599  1
  Al  Al32  1  0.09978511  0.76002498  0.82316038  1
  Al  Al33  1  0.78066965  0.76425252  0.32225457  1
  Al  Al34  1  0.88958223  0.87145750  0.07019389  1
  Al  Al35  1  0.56896922  0.86706527  0.57293380  1
  N  N36  1  0.21163961  0.22395734  0.33020248  1
  N  N37  1  0.11105195  0.09333956  0.10307311  1
  N  N38  1  0.86627242  0.21246543  0.88779051  1
  N  N39  1  0.77483845  0.09793742  0.63300924  1
  N  N40  1  0.56933108  0.21407931  0.38225531  1
  N  N41  1  0.44740475  0.09483868  0.11362166  1
  N  N42  1  0.21497175  0.23036402  0.82483915  1
  N  N43  1  0.08124135  0.11057229  0.62030526  1
  N  N44  1  0.86951325  0.20847685  0.37026136  1
  N  N45  1  0.77627431  0.09145897  0.12891172  1
  N  N46  1  0.56924347  0.20923133  0.87951363  1
  N  N47  1  0.46490106  0.08703860  0.60673319  1
  N  N48  1  0.24051395  0.51343171  0.31778120  1
  N  N49  1  0.10903741  0.43100538  0.07871561  1
  N  N50  1  0.89006465  0.53576638  0.83661221  1
  N  N51  1  0.76031859  0.42418271  0.56823981  1
  N  N52  1  0.56368399  0.51621999  0.31697096  1
  N  N53  1  0.44214265  0.43130650  0.07475075  1
  N  N54  1  0.22462201  0.53427492  0.83104745  1
  N  N55  1  0.11578477  0.44888472  0.56110816  1
  N  N56  1  0.89059475  0.53479175  0.33373779  1
  N  N57  1  0.77655806  0.43375016  0.08438128  1
  N  N58  1  0.57093017  0.50996713  0.82723391  1
  N  N59  1  0.43701783  0.43852105  0.58011261  1
  N  N60  1  0.22441220  0.86689281  0.38863266  1
  N  N61  1  0.10812420  0.76232214  0.11982698  1
  N  N62  1  0.88846499  0.87450359  0.88067114  1
  N  N63  1  0.77077296  0.78348414  0.63720114  1
  N  N64  1  0.57990843  0.85645192  0.38482924  1
  N  N65  1  0.44427163  0.76044912  0.10397387  1
  N  N66  1  0.21321813  0.85921874  0.87012854  1
  N  N67  1  0.09117111  0.75897828  0.62743805  1
  N  N68  1  0.86540709  0.88719023  0.38486933  1
  N  N69  1  0.78151833  0.76417115  0.13161536  1
  N  N70  1  0.58433601  0.85979959  0.89073499  1
  N  N71  1  0.47050625  0.75173121  0.62639559  1
