# generated using pymatgen
data_LiGaS2
_symmetry_space_group_name_H-M   'P 1'
_cell_length_a   6.29889854
_cell_length_b   6.64123470
_cell_length_c   8.13329570
_cell_angle_alpha   90.02619086
_cell_angle_beta   89.98311702
_cell_angle_gamma   90.03363624
_symmetry_Int_Tables_number   1
_chemical_formula_structural   LiGaS2
_chemical_formula_sum   'Li4 Ga4 S8'
_cell_volume   340.23568734
_cell_formula_units_Z   4
loop_
 _symmetry_equiv_pos_site_id
 _symmetry_equiv_pos_as_xyz
  1  'x, y, z'
loop_
 _atom_site_type_symbol
 _atom_site_label
 _atom_site_symmetry_multiplicity
 _atom_site_fract_x
 _atom_site_fract_y
 _atom_site_fract_z
 _atom_site_occupancy
  S  S0  1  0.02113323  0.05944019  0.12685794  1
  S  S1  1  0.05984398  0.59765227  0.87971199  1
  S  S2  1  0.04614711  0.08991963  0.64862407  1
  S  S3  1  0.52004893  0.94421050  0.89789152  1
  S  S4  1  0.12782186  0.56537229  0.39921543  1
  S  S5  1  0.59773516  0.41402290  0.14647775  1
  S  S6  1  0.54541253  0.91552857  0.37613520  1
  S  S7  1  0.62442347  0.43857441  0.62308696  1
  Ga  Ga8  1  0.15304645  0.93495224  0.88591494  1
  Ga  Ga9  1  0.65304309  0.06847734  0.13894771  1
  Ga  Ga10  1  0.99466731  0.43644669  0.63622175  1
  Ga  Ga11  1  0.49639109  0.56753031  0.38448117  1
  Li  Li12  1  0.00470049  0.42454064  0.14054459  1
  Li  Li13  1  0.15504850  0.93387868  0.38987906  1
  Li  Li14  1  0.64947100  0.60430373  0.89173306  1
  Li  Li15  1  0.65445869  0.07246814  0.63493339  1
