# generated using pymatgen
data_LiGaS2
_symmetry_space_group_name_H-M   'P 1'
_cell_length_a   6.29890005
_cell_length_b   6.65694310
_cell_length_c   8.06494744
_cell_angle_alpha   89.86162125
_cell_angle_beta   89.21740888
_cell_angle_gamma   90.05196495
_symmetry_Int_Tables_number   1
_chemical_formula_structural   LiGaS2
_chemical_formula_sum   'Li4 Ga4 S8'
_cell_volume   338.14201177
_cell_formula_units_Z   4
loop_
 _symmetry_equiv_pos_site_id
 _symmetry_equiv_pos_as_xyz
  1  'x, y, z'
loop_
 _atom_site_type_symbol
 _atom_site_label
 _atom_site_symmetry_multiplicity
 _atom_site_fract_x
 _atom_site_fract_y
 _atom_site_fract_z
 _atom_site_occupancy
  S  S0  1  0.01219729  0.06608806  0.12836775  1
  S  S1  1  0.03808054  0.60225391  0.88783924  1
  S  S2  1  0.03816439  0.09013526  0.65317959  1
  S  S3  1  0.51794099  0.94030744  0.89650332  1
  S  S4  1  0.10514509  0.57366500  0.39835675  1
  S  S5  1  0.54143908  0.40937279  0.13714058  1
  S  S6  1  0.53854493  0.91640895  0.37606779  1
  S  S7  1  0.58885777  0.43551870  0.62529937  1
  Ga  Ga8  1  0.15408852  0.93415538  0.89060686  1
  Ga  Ga9  1  0.64288654  0.07606236  0.13788719  1
  Ga  Ga10  1  0.05736293  0.43108009  0.64699328  1
  Ga  Ga11  1  0.48316396  0.56939474  0.38722502  1
  Li  Li12  1  0.14877594  0.40295941  0.12791341  1
  Li  Li13  1  0.14984925  0.93787723  0.39072974  1
  Li  Li14  1  0.64247139  0.59825371  0.88548205  1
  Li  Li15  1  0.64442428  0.08378549  0.63106460  1
