# generated using pymatgen
data_LiGaS2
_symmetry_space_group_name_H-M   'P 1'
_cell_length_a   6.29889873
_cell_length_b   6.61037337
_cell_length_c   7.97668044
_cell_angle_alpha   90.03274071
_cell_angle_beta   90.57335842
_cell_angle_gamma   89.96367978
_symmetry_Int_Tables_number   1
_chemical_formula_structural   LiGaS2
_chemical_formula_sum   'Li4 Ga4 S8'
_cell_volume   332.11684812
_cell_formula_units_Z   4
loop_
 _symmetry_equiv_pos_site_id
 _symmetry_equiv_pos_as_xyz
  1  'x, y, z'
loop_
 _atom_site_type_symbol
 _atom_site_label
 _atom_site_symmetry_multiplicity
 _atom_site_fract_x
 _atom_site_fract_y
 _atom_site_fract_z
 _atom_site_occupancy
  S  S0  1  0.14894367  0.07390972  0.12782582  1
  S  S1  1  0.13675435  0.59091443  0.87762455  1
  S  S2  1  0.13250923  0.09909432  0.63770784  1
  S  S3  1  0.65082272  0.93841301  0.89848997  1
  S  S4  1  0.14831948  0.56974899  0.39623134  1
  S  S5  1  0.62799616  0.40959803  0.15451153  1
  S  S6  1  0.62580865  0.91139115  0.37982284  1
  S  S7  1  0.65025939  0.44113499  0.63199082  1
  Ga  Ga8  1  0.05623077  0.92967736  0.87947378  1
  Ga  Ga9  1  0.51727015  0.07586579  0.13799296  1
  Ga  Ga10  1  0.01543757  0.43261365  0.63682012  1
  Ga  Ga11  1  0.51582594  0.57943166  0.38912549  1
  Li  Li12  1  0.01210975  0.42059233  0.13633776  1
  Li  Li13  1  0.01125321  0.91181816  0.38276779  1
  Li  Li14  1  0.52891457  0.58981926  0.89603267  1
  Li  Li15  1  0.52493729  0.09329568  0.63790124  1
