# generated using pymatgen
data_LiGaS2
_symmetry_space_group_name_H-M   'P 1'
_cell_length_a   6.29890101
_cell_length_b   6.65669311
_cell_length_c   8.06477430
_cell_angle_alpha   90.14318440
_cell_angle_beta   90.77747953
_cell_angle_gamma   90.06083914
_symmetry_Int_Tables_number   1
_chemical_formula_structural   LiGaS2
_chemical_formula_sum   'Li4 Ga4 S8'
_cell_volume   338.12239302
_cell_formula_units_Z   4
loop_
 _symmetry_equiv_pos_site_id
 _symmetry_equiv_pos_as_xyz
  1  'x, y, z'
loop_
 _atom_site_type_symbol
 _atom_site_label
 _atom_site_symmetry_multiplicity
 _atom_site_fract_x
 _atom_site_fract_y
 _atom_site_fract_z
 _atom_site_occupancy
  S  S0  1  0.07466495  0.07296380  0.12538508  1
  S  S1  1  0.12405314  0.59211439  0.87610251  1
  S  S2  1  0.12127525  0.09907007  0.63723185  1
  S  S3  1  0.55794443  0.93461114  0.89828718  1
  S  S4  1  0.14510007  0.56812429  0.39653004  1
  S  S5  1  0.62492315  0.41825653  0.15312110  1
  S  S6  1  0.62510453  0.90620623  0.38782891  1
  S  S7  1  0.65065644  0.44232521  0.62834065  1
  Ga  Ga8  1  0.17993138  0.93905970  0.88725589  1
  Ga  Ga9  1  0.60502991  0.07732568  0.14699435  1
  Ga  Ga10  1  0.01995929  0.43241173  0.63788806  1
  Ga  Ga11  1  0.50897626  0.57431151  0.39056414  1
  Li  Li12  1  0.01878550  0.42456277  0.13111571  1
  Li  Li13  1  0.02095080  0.91022144  0.38545828  1
  Li  Li14  1  0.51242664  0.57020678  0.89073125  1
  Li  Li15  1  0.51361115  0.10554725  0.62782155  1
