# generated using pymatgen
data_LiGaS2
_symmetry_space_group_name_H-M   'P 1'
_cell_length_a   6.29889753
_cell_length_b   6.65251995
_cell_length_c   8.13199303
_cell_angle_alpha   89.95078672
_cell_angle_beta   90.00375910
_cell_angle_gamma   89.99151035
_symmetry_Int_Tables_number   1
_chemical_formula_structural   LiGaS2
_chemical_formula_sum   'Li4 Ga4 S8'
_cell_volume   340.75917665
_cell_formula_units_Z   4
loop_
 _symmetry_equiv_pos_site_id
 _symmetry_equiv_pos_as_xyz
  1  'x, y, z'
loop_
 _atom_site_type_symbol
 _atom_site_label
 _atom_site_symmetry_multiplicity
 _atom_site_fract_x
 _atom_site_fract_y
 _atom_site_fract_z
 _atom_site_occupancy
  S  S0  1  0.04119944  0.07076101  0.12330987  1
  S  S1  1  0.11809119  0.59357570  0.87609248  1
  S  S2  1  0.08960166  0.09757502  0.64321739  1
  S  S3  1  0.53820227  0.93923296  0.90144173  1
  S  S4  1  0.14437194  0.56569613  0.39833125  1
  S  S5  1  0.61813646  0.41704542  0.14916747  1
  S  S6  1  0.61052742  0.90740932  0.37953775  1
  S  S7  1  0.64477929  0.44869365  0.62735595  1
  Ga  Ga8  1  0.16813969  0.94076505  0.88491504  1
  Ga  Ga9  1  0.67123815  0.07160789  0.13644985  1
  Ga  Ga10  1  0.01312009  0.43729804  0.63924127  1
  Ga  Ga11  1  0.51086098  0.57231883  0.38620468  1
  Li  Li12  1  0.01035876  0.43654517  0.13515731  1
  Li  Li13  1  0.01400768  0.90529602  0.39436375  1
  Li  Li14  1  0.50861688  0.57298061  0.89062331  1
  Li  Li15  1  0.60214096  0.09051772  0.63524744  1
