# generated using pymatgen
data_LiGaS2
_symmetry_space_group_name_H-M   'P 1'
_cell_length_a   6.29889877
_cell_length_b   6.62952663
_cell_length_c   8.14712254
_cell_angle_alpha   89.96906156
_cell_angle_beta   90.00180173
_cell_angle_gamma   90.03692279
_symmetry_Int_Tables_number   1
_chemical_formula_structural   LiGaS2
_chemical_formula_sum   'Li4 Ga4 S8'
_cell_volume   340.21326513
_cell_formula_units_Z   4
loop_
 _symmetry_equiv_pos_site_id
 _symmetry_equiv_pos_as_xyz
  1  'x, y, z'
loop_
 _atom_site_type_symbol
 _atom_site_label
 _atom_site_symmetry_multiplicity
 _atom_site_fract_x
 _atom_site_fract_y
 _atom_site_fract_z
 _atom_site_occupancy
  S  S0  1  0.03369447  0.06776673  0.12307623  1
  S  S1  1  0.11702259  0.59106908  0.87601538  1
  S  S2  1  0.05794551  0.09286351  0.64945654  1
  S  S3  1  0.53284946  0.94477919  0.89907092  1
  S  S4  1  0.14105494  0.55917755  0.39760649  1
  S  S5  1  0.61584053  0.41920692  0.14827006  1
  S  S6  1  0.57937166  0.91601631  0.37909056  1
  S  S7  1  0.63951950  0.44840669  0.62616781  1
  Ga  Ga8  1  0.16526447  0.93936411  0.88548859  1
  Ga  Ga9  1  0.66405364  0.07085627  0.13803460  1
  Ga  Ga10  1  0.00684692  0.44023364  0.63913563  1
  Ga  Ga11  1  0.50906375  0.57357653  0.38521844  1
  Li  Li12  1  0.00662448  0.43508036  0.13439097  1
  Li  Li13  1  0.06503443  0.91331997  0.39098679  1
  Li  Li14  1  0.50802977  0.57514094  0.88926865  1
  Li  Li15  1  0.66117677  0.08046072  0.63937888  1
